
     RDKit          3D

 12 11  0  0  0  0  0  0  0  0999 V2000
   -4.3206   -0.7795    0.4943 N   0  0  0  0  0  0  0  0  0  0  0  0
   -3.1402   -0.1462    0.0263 C   0  0  0  0  0  0  0  0  0  0  0  0
   -2.1954   -0.8195   -0.5629 N   0  0  0  0  0  0  0  0  0  0  0  0
   -2.7743    1.1876    0.3986 N   0  0  0  0  0  0  0  0  0  0  0  0
   -1.4587    1.5479    0.8543 C   0  0  0  0  0  0  0  0  0  0  0  0
   -0.4044    1.3821   -0.2285 C   0  0  0  0  0  0  0  0  0  0  0  0
    0.9284    1.8190    0.3254 C   0  0  0  0  0  0  0  0  0  0  0  0
    2.0893    1.0554   -0.2846 C   0  0  0  0  0  0  0  0  0  0  0  0
    1.8308   -0.3643   -0.1196 N   0  0  0  0  0  0  0  0  0  0  0  0
    2.7984   -1.3494   -0.4906 C   0  0  0  0  0  0  0  0  0  0  0  0
    3.6387   -1.0041   -1.4143 N   0  0  0  0  0  0  0  0  0  0  0  0
    3.0081   -2.5290    0.2664 N   0  0  0  0  0  0  0  0  0  0  0  0
  1  2  1  0
  2  3  2  0
  2  4  1  0
  4  5  1  0
  5  6  1  0
  6  7  1  0
  7  8  1  0
  8  9  1  0
  9 10  1  0
 10 11  2  0
 10 12  1  0
M  END

$$$$

     RDKit          3D

 20 21  0  0  0  0  0  0  0  0999 V2000
    4.3888   -1.7161   -0.6280 N   0  0  0  0  0  0  0  0  0  0  0  0
    3.7948   -0.2923    0.1575 S   0  0  0  0  0  0  0  0  0  0  0  0
    4.3624    0.8896   -0.5631 O   0  0  0  0  0  0  0  0  0  0  0  0
    4.3429   -0.2643    1.5599 O   0  0  0  0  0  0  0  0  0  0  0  0
    2.0545   -0.3095    0.1396 C   0  0  0  0  0  0  0  0  0  0  0  0
    1.2861    0.8448    0.0384 C   0  0  0  0  0  0  0  0  0  0  0  0
   -0.0724    0.7811   -0.0523 C   0  0  0  0  0  0  0  0  0  0  0  0
   -0.6720   -0.4275    0.2815 C   0  0  0  0  0  0  0  0  0  0  0  0
   -1.9801   -0.3436    0.8062 N   0  0  0  0  0  0  0  0  0  0  0  0
   -3.0276    0.3941    0.1992 C   0  0  0  0  0  0  0  0  0  0  0  0
   -2.6936    1.6247   -0.4232 N   0  0  0  0  0  0  0  0  0  0  0  0
   -1.1035    2.1747   -0.1432 S   0  0  0  0  0  0  0  0  0  0  0  0
   -1.0461    2.9423    1.1491 O   0  0  0  0  0  0  0  0  0  0  0  0
   -0.7084    3.0838   -1.2855 O   0  0  0  0  0  0  0  0  0  0  0  0
   -3.9727   -0.4607   -0.6223 C   0  0  0  0  0  0  0  0  0  0  0  0
   -5.4026   -0.8476    0.3804 Cl  0  0  0  0  0  0  0  0  0  0  0  0
   -3.2178   -2.0322   -1.0212 Cl  0  0  0  0  0  0  0  0  0  0  0  0
    0.0381   -1.6164    0.1690 C   0  0  0  0  0  0  0  0  0  0  0  0
    1.4144   -1.5348   -0.0011 C   0  0  0  0  0  0  0  0  0  0  0  0
    2.2148   -2.8904   -0.7918 Cl  0  0  0  0  0  0  0  0  0  0  0  0
  1  2  1  0
  2  3  2  0
  2  4  2  0
  2  5  1  0
  5  6  2  0
  6  7  1  0
  7  8  2  0
  8  9  1  0
  9 10  1  0
 10 11  1  0
 11 12  1  0
 12 13  2  0
 12 14  2  0
 10 15  1  0
 15 16  1  0
 15 17  1  0
  8 18  1  0
 18 19  2  0
 19 20  1  0
 19  5  1  0
 12  7  1  0
M  END

$$$$

     RDKit          3D

 18 20  0  0  0  0  0  0  0  0999 V2000
   -2.0071    2.2878    1.3950 N   0  0  0  0  0  0  0  0  0  0  0  0
   -1.4533    2.2407    0.0751 C   0  0  0  0  0  0  0  0  0  0  0  0
   -1.5357    3.4853   -0.9645 S   0  0  0  0  0  0  0  0  0  0  0  0
   -0.5543    1.1807   -0.1919 N   0  0  0  0  0  0  0  0  0  0  0  0
    0.8250    1.3661   -0.4038 N   0  0  0  0  0  0  0  0  0  0  0  0
    1.4234    0.2329   -0.5502 C   0  0  0  0  0  0  0  0  0  0  0  0
    0.3999   -0.8602   -0.5458 C   0  0  0  0  0  0  0  0  0  0  0  0
   -0.6729   -0.1874    0.3061 C   0  0  0  0  0  0  0  0  0  0  0  0
   -2.0257   -0.7518    0.0122 C   0  0  0  0  0  0  0  0  0  0  0  0
   -2.2335   -1.7989   -0.8805 C   0  0  0  0  0  0  0  0  0  0  0  0
   -3.5639   -2.0718   -1.0300 C   0  0  0  0  0  0  0  0  0  0  0  0
   -4.2043   -2.1780    0.2012 C   0  0  0  0  0  0  0  0  0  0  0  0
   -3.3069   -1.0352    1.1250 S   0  0  0  0  0  0  0  0  0  0  0  0
    2.8081   -0.0259   -0.1300 C   0  0  0  0  0  0  0  0  0  0  0  0
    3.5704   -1.0279   -0.5293 O   0  0  0  0  0  0  0  0  0  0  0  0
    4.6090   -1.1626    0.2671 C   0  0  0  0  0  0  0  0  0  0  0  0
    4.3798   -0.3372    1.3613 C   0  0  0  0  0  0  0  0  0  0  0  0
    3.5422    0.6435    0.8430 C   0  0  0  0  0  0  0  0  0  0  0  0
  1  2  1  0
  2  3  2  0
  2  4  1  0
  4  5  1  0
  5  6  2  0
  6  7  1  0
  7  8  1  0
  8  9  1  0
  9 10  2  0
 10 11  1  0
 11 12  2  0
 12 13  1  0
  6 14  1  0
 14 15  1  0
 15 16  1  0
 16 17  2  0
 17 18  1  0
  8  4  1  0
 13  9  1  0
 18 14  2  0
M  END

$$$$

     RDKit          3D

 12 11  0  0  0  0  0  0  0  0999 V2000
   -1.4796    1.5228    0.0887 N   0  0  0  0  0  0  0  0  0  0  0  0
   -1.3687    0.2021   -0.7110 C   0  0  1  0  0  0  0  0  0  0  0  0
   -0.8294   -0.6469    0.5549 C   0  0  0  0  0  0  0  0  0  0  0  0
    0.4973   -0.1393    0.6821 O   0  0  0  0  0  0  0  0  0  0  0  0
    1.6087   -0.8242    0.1810 C   0  0  0  0  0  0  0  0  0  0  0  0
    1.4567   -1.9678   -0.3451 O   0  0  0  0  0  0  0  0  0  0  0  0
    2.9616   -0.3335    0.2877 C   0  0  0  0  0  0  0  0  0  0  0  0
    3.1758    0.8587   -0.0657 N   0  0  0  0  0  0  0  0  0  0  0  0
    3.8792    1.8604   -0.1268 N   0  0  0  0  0  0  0  0  0  0  0  0
   -2.8818   -0.2129   -0.4969 C   0  0  0  0  0  0  0  0  0  0  0  0
   -3.5964   -0.2622   -1.5404 O   0  0  0  0  0  0  0  0  0  0  0  0
   -3.4234   -0.0574    0.7563 O   0  0  0  0  0  0  0  0  0  0  0  0
  2  1  1  1
  2  3  1  0
  3  4  1  0
  4  5  1  0
  5  6  2  0
  5  7  1  0
  7  8  2  3
  8  9  2  0
  2 10  1  0
 10 11  2  0
 10 12  1  0
M  CHG  2   8   1   9  -1
M  END

$$$$

     RDKit          3D

  7  6  0  0  0  0  0  0  0  0999 V2000
   -1.3011    1.6249   -0.2325 O   0  0  0  0  0  0  0  0  0  0  0  0
   -0.9129   -0.0031   -0.0006 S   0  0  0  0  0  0  0  0  0  0  0  0
   -2.0339   -0.8070   -0.6160 O   0  0  0  0  0  0  0  0  0  0  0  0
   -0.8485   -0.2803    1.4683 O   0  0  0  0  0  0  0  0  0  0  0  0
    0.5754   -0.3866   -0.8578 C   0  0  0  0  0  0  0  0  0  0  0  0
    1.6562   -0.7501    0.1393 C   0  0  0  0  0  0  0  0  0  0  0  0
    2.8648    0.6022    0.0993 S   0  0  0  0  0  0  0  0  0  0  0  0
  1  2  1  0
  2  3  2  0
  2  4  2  0
  2  5  1  0
  5  6  1  0
  6  7  1  0
M  END

$$$$

     RDKit          3D

 12 12  0  0  0  0  0  0  0  0999 V2000
   -3.9496   -1.2317    0.1286 N   0  0  0  0  0  0  0  0  0  0  0  0
   -2.7050   -0.7159    0.5092 N   0  0  0  0  0  0  0  0  0  0  0  0
   -2.4848    0.4659   -0.3181 C   0  0  0  0  0  0  0  0  0  0  0  0
   -1.2043    1.1177    0.0477 C   0  0  0  0  0  0  0  0  0  0  0  0
   -1.2775    2.3184    0.5810 C   0  0  0  0  0  0  0  0  0  0  0  0
    0.0808    0.4486   -0.0602 C   0  0  0  0  0  0  0  0  0  0  0  0
    1.1872    0.9880    0.5841 C   0  0  0  0  0  0  0  0  0  0  0  0
    2.4240    0.3617    0.4964 C   0  0  0  0  0  0  0  0  0  0  0  0
    2.5542   -0.6950   -0.3955 C   0  0  0  0  0  0  0  0  0  0  0  0
    3.7641   -0.8591   -1.0065 F   0  0  0  0  0  0  0  0  0  0  0  0
    1.4176   -1.3114   -0.8993 C   0  0  0  0  0  0  0  0  0  0  0  0
    0.1933   -0.8871   -0.4027 C   0  0  0  0  0  0  0  0  0  0  0  0
  1  2  1  0
  2  3  1  0
  3  4  1  0
  4  5  2  0
  4  6  1  0
  6  7  2  0
  7  8  1  0
  8  9  2  0
  9 10  1  0
  9 11  1  0
 11 12  2  0
 12  6  1  0
M  END

$$$$

     RDKit          3D

 17 18  0  0  0  0  0  0  0  0999 V2000
    5.1626    1.7993    0.5634 C   0  0  0  0  0  0  0  0  0  0  0  0
    4.0275    0.8735    0.4265 C   0  0  0  0  0  0  0  0  0  0  0  0
    3.7909   -0.1021   -0.4869 N   0  0  0  0  0  0  0  0  0  0  0  0
    3.1735   -1.1305    0.0353 N   0  0  0  0  0  0  0  0  0  0  0  0
    2.0599   -0.7666    0.7199 C   0  0  0  0  0  0  0  0  0  0  0  0
    0.8533   -1.4623    0.9413 N   0  0  0  0  0  0  0  0  0  0  0  0
   -0.3260   -1.4337   -0.3328 S   0  0  0  0  0  0  0  0  0  0  0  0
   -0.8519   -2.8076   -0.6226 O   0  0  0  0  0  0  0  0  0  0  0  0
    0.2250   -0.7779   -1.5726 O   0  0  0  0  0  0  0  0  0  0  0  0
   -1.6336   -0.3990    0.2294 C   0  0  0  0  0  0  0  0  0  0  0  0
   -1.3380    0.9216    0.5368 C   0  0  0  0  0  0  0  0  0  0  0  0
   -2.4127    1.7974    0.5591 C   0  0  0  0  0  0  0  0  0  0  0  0
   -3.7176    1.3459    0.4286 C   0  0  0  0  0  0  0  0  0  0  0  0
   -4.7542    2.3108    0.6413 N   0  0  0  0  0  0  0  0  0  0  0  0
   -3.9416   -0.0128    0.4803 C   0  0  0  0  0  0  0  0  0  0  0  0
   -2.9109   -0.8931    0.2426 C   0  0  0  0  0  0  0  0  0  0  0  0
    2.5938    0.7370    1.3701 S   0  0  0  0  0  0  0  0  0  0  0  0
  1  2  1  0
  2  3  2  0
  3  4  1  0
  4  5  2  0
  5  6  1  0
  6  7  1  0
  7  8  2  0
  7  9  2  0
  7 10  1  0
 10 11  2  0
 11 12  1  0
 12 13  2  0
 13 14  1  0
 13 15  1  0
 15 16  2  0
  5 17  1  0
 17  2  1  0
 16 10  1  0
M  END

$$$$

     RDKit          3D

 24 27  0  0  0  0  0  0  0  0999 V2000
    4.7320    2.5896   -0.0958 C   0  0  0  0  0  0  0  0  0  0  0  0
    4.7259    0.9873   -0.1919 C   0  0  1  0  0  0  0  0  0  0  0  0
    4.9396    0.7765    1.3859 C   0  0  0  0  0  0  0  0  0  0  0  0
    6.0531   -0.0572    1.4103 O   0  0  0  0  0  0  0  0  0  0  0  0
    3.1940    0.8694   -0.1019 N   0  0  0  0  0  0  0  0  0  0  0  0
    2.7060   -0.4208    0.2915 C   0  0  0  0  0  0  0  0  0  0  0  0
    3.4407   -1.1708    0.9644 O   0  0  0  0  0  0  0  0  0  0  0  0
    1.6821   -1.0826   -0.7077 C   0  0  1  0  0  0  0  0  0  0  0  0
    1.1386   -2.1610    0.3494 C   0  0  0  0  0  0  0  0  0  0  0  0
   -0.1735   -2.5928   -0.1208 N   0  0  0  0  0  0  0  0  0  0  0  0
   -0.2993   -2.5616   -1.5419 C   0  0  0  0  0  0  0  0  0  0  0  0
   -1.0369   -1.4848    0.5084 C   0  0  2  0  0  0  0  0  0  0  0  0
   -2.4086   -1.9794   -0.1693 C   0  0  0  0  0  0  0  0  0  0  0  0
   -3.3154   -0.8683    0.2565 C   0  0  0  0  0  0  0  0  0  0  0  0
   -4.3753   -0.6568    1.0790 C   0  0  0  0  0  0  0  0  0  0  0  0
   -4.7537    0.6392    0.9331 N   0  0  0  0  0  0  0  0  0  0  0  0
   -3.8908    1.2819    0.1187 C   0  0  0  0  0  0  0  0  0  0  0  0
   -3.5475    2.6022   -0.1314 C   0  0  0  0  0  0  0  0  0  0  0  0
   -2.4190    2.8871   -0.8940 C   0  0  0  0  0  0  0  0  0  0  0  0
   -1.4518    1.9134   -1.1272 C   0  0  0  0  0  0  0  0  0  0  0  0
   -1.7511    0.5931   -0.8130 C   0  0  0  0  0  0  0  0  0  0  0  0
   -0.7031   -0.4168   -0.6096 C   0  0  0  0  0  0  0  0  0  0  0  0
    0.5562   -0.0193   -0.4159 C   0  0  0  0  0  0  0  0  0  0  0  0
   -3.0420    0.3324   -0.3768 C   0  0  0  0  0  0  0  0  0  0  0  0
  2  1  1  1
  2  3  1  0
  3  4  1  0
  2  5  1  0
  5  6  1  0
  6  7  2  0
  8  6  1  1
  8  9  1  0
  9 10  1  0
 10 11  1  0
 12 10  1  6
 12 13  1  0
 13 14  1  0
 14 15  2  0
 15 16  1  0
 16 17  1  0
 17 18  2  0
 18 19  1  0
 19 20  2  0
 20 21  1  0
 21 22  1  0
 22 23  2  0
 21 24  2  0
 23  8  1  0
 22 12  1  0
 24 14  1  0
 24 17  1  0
M  END

$$$$

     RDKit          3D

 35 38  0  0  0  0  0  0  0  0999 V2000
    3.2320   -0.4365    2.3204 C   0  0  0  0  0  0  0  0  0  0  0  0
    1.7537   -0.7860    1.8337 C   0  0  1  0  0  0  0  0  0  0  0  0
    1.4089    0.7152    1.2927 C   0  0  0  0  0  0  0  0  0  0  0  0
    0.0342   -0.0024    0.9223 C   0  0  1  0  0  0  0  0  0  0  0  0
   -0.6970    1.0060   -0.1719 C   0  0  2  0  0  0  0  0  0  0  0  0
   -1.5129    1.8362    0.9456 C   0  0  0  0  0  0  0  0  0  0  0  0
   -2.5725    2.6088   -0.0210 C   0  0  2  0  0  0  0  0  0  0  0  0
   -3.2644    3.2124    1.1537 F   0  0  0  0  0  0  0  0  0  0  0  0
   -3.6208    1.4346   -0.2463 C   0  0  0  0  0  0  0  0  0  0  0  0
   -4.5971    1.1709    0.5631 C   0  0  0  0  0  0  0  0  0  0  0  0
   -5.4166    0.0007    0.4008 C   0  0  0  0  0  0  0  0  0  0  0  0
   -6.1420   -0.4839    1.2888 O   0  0  0  0  0  0  0  0  0  0  0  0
   -5.1831   -0.7837   -0.8219 C   0  0  0  0  0  0  0  0  0  0  0  0
   -4.0292   -0.5959   -1.3517 C   0  0  0  0  0  0  0  0  0  0  0  0
   -2.9925    0.3502   -1.0992 C   0  0  1  0  0  0  0  0  0  0  0  0
   -2.7096    0.8202   -2.4889 C   0  0  0  0  0  0  0  0  0  0  0  0
   -1.7387   -0.1318   -0.5621 C   0  0  1  0  0  0  0  0  0  0  0  0
   -2.3954    0.0227    0.6966 F   0  0  0  0  0  0  0  0  0  0  0  0
   -1.5343   -1.4793    0.2867 C   0  0  1  0  0  0  0  0  0  0  0  0
   -2.4786   -2.2849   -0.5303 O   0  0  0  0  0  0  0  0  0  0  0  0
   -0.2068   -1.9234   -0.5048 C   0  0  0  0  0  0  0  0  0  0  0  0
    0.7527   -0.8229   -0.2539 C   0  0  1  0  0  0  0  0  0  0  0  0
    0.9596   -0.0735   -1.5009 C   0  0  0  0  0  0  0  0  0  0  0  0
    2.0671   -1.2183    0.3239 C   0  0  2  0  0  0  0  0  0  0  0  0
    2.1980   -2.5583    0.2219 O   0  0  0  0  0  0  0  0  0  0  0  0
    3.2689   -3.3802    0.3080 C   0  0  0  0  0  0  0  0  0  0  0  0
    4.2837   -2.8661    0.7957 O   0  0  0  0  0  0  0  0  0  0  0  0
    3.3750   -4.7305   -0.3224 C   0  0  0  0  0  0  0  0  0  0  0  0
    3.1252   -0.4111   -0.3011 C   0  0  0  0  0  0  0  0  0  0  0  0
    3.3106   -0.9348   -1.4316 O   0  0  0  0  0  0  0  0  0  0  0  0
    3.2377    1.0267   -0.5407 C   0  0  0  0  0  0  0  0  0  0  0  0
    4.3888    1.5852   -0.0042 O   0  0  0  0  0  0  0  0  0  0  0  0
    4.5483    2.9177    0.2833 C   0  0  0  0  0  0  0  0  0  0  0  0
    3.7940    3.7221   -0.3513 O   0  0  0  0  0  0  0  0  0  0  0  0
    5.3533    3.4738    1.3834 C   0  0  0  0  0  0  0  0  0  0  0  0
  2  1  1  1
  2  3  1  0
  4  3  1  1
  4  5  1  0
  5  6  1  1
  6  7  1  0
  7  8  1  1
  7  9  1  0
  9 10  2  0
 10 11  1  0
 11 12  2  0
 11 13  1  0
 13 14  2  0
 14 15  1  0
 15 16  1  6
 15 17  1  0
 17 18  1  1
 17 19  1  0
 19 20  1  6
 19 21  1  0
 21 22  1  0
 22 23  1  6
 22 24  1  0
 24 25  1  1
 25 26  1  0
 26 27  2  0
 26 28  1  0
 24 29  1  0
 29 30  2  0
 29 31  1  0
 31 32  1  0
 32 33  1  0
 33 34  2  0
 33 35  1  0
 24  2  1  0
 22  4  1  0
 17  5  1  0
 15  9  1  0
M  END

$$$$

     RDKit          3D

 30 32  0  0  0  0  0  0  0  0999 V2000
    2.6231   -2.5154    1.7355 C   0  0  0  0  0  0  0  0  0  0  0  0
    2.7526   -1.7244    1.3096 O   0  0  0  0  0  0  0  0  0  0  0  0
    2.1830   -1.4740    0.0663 C   0  0  2  0  0  0  0  0  0  0  0  0
    3.1102   -1.4121   -1.0047 N   0  0  0  0  0  0  0  0  0  0  0  0
    4.1891   -0.5054   -0.9524 C   0  0  0  0  0  0  0  0  0  0  0  0
    3.9678    0.6120   -0.3950 O   0  0  0  0  0  0  0  0  0  0  0  0
    5.5337   -0.7991   -1.5409 C   0  0  0  0  0  0  0  0  0  0  0  0
    6.5871    0.6584   -1.3480 S   0  0  0  0  0  0  0  0  0  0  0  0
    6.4589    1.3295    0.3360 C   0  0  0  0  0  0  0  0  0  0  0  0
    6.7424    2.7518    0.3874 C   0  0  0  0  0  0  0  0  0  0  0  0
    7.1108    3.8509    0.2717 N   0  0  0  0  0  0  0  0  0  0  0  0
    1.2269   -0.2134    0.1317 C   0  0  1  0  0  0  0  0  0  0  0  0
    0.9383   -0.0377   -1.7628 S   0  0  0  0  0  0  0  0  0  0  0  0
   -0.7366    0.6829   -1.8222 C   0  0  0  0  0  0  0  0  0  0  0  0
   -1.4403    0.4913   -0.5145 C   0  0  0  0  0  0  0  0  0  0  0  0
   -1.2000   -0.6083    0.2012 C   0  0  0  0  0  0  0  0  0  0  0  0
    0.0897   -1.2030    0.3052 N   0  0  0  0  0  0  0  0  0  0  0  0
    0.9600   -2.2698   -0.1002 C   0  0  0  0  0  0  0  0  0  0  0  0
    0.7851   -3.5231    0.0061 O   0  0  0  0  0  0  0  0  0  0  0  0
   -2.2725   -1.3517    0.8754 C   0  0  0  0  0  0  0  0  0  0  0  0
   -2.3254   -1.1955    2.1334 O   0  0  0  0  0  0  0  0  0  0  0  0
   -2.4847   -2.6659    0.4467 O   0  0  0  0  0  0  0  0  0  0  0  0
   -2.7380    1.1752   -0.3565 C   0  0  0  0  0  0  0  0  0  0  0  0
   -4.1077   -0.0128   -0.1599 S   0  0  0  0  0  0  0  0  0  0  0  0
   -5.5269    0.9092    0.4076 C   0  0  0  0  0  0  0  0  0  0  0  0
   -6.5389    0.5243    1.1984 N   0  0  0  0  0  0  0  0  0  0  0  0
   -7.5713    1.3461    1.0128 N   0  0  0  0  0  0  0  0  0  0  0  0
   -7.2177    2.2734    0.1396 N   0  0  0  0  0  0  0  0  0  0  0  0
   -5.9525    2.0374   -0.2048 N   0  0  0  0  0  0  0  0  0  0  0  0
   -5.1461    2.8695   -1.0889 C   0  0  0  0  0  0  0  0  0  0  0  0
  1  2  1  0
  3  2  1  1
  3  4  1  0
  4  5  1  0
  5  6  2  0
  5  7  1  0
  7  8  1  0
  8  9  1  0
  9 10  1  0
 10 11  3  0
  3 12  1  0
 12 13  1  6
 13 14  1  0
 14 15  1  0
 15 16  2  0
 16 17  1  0
 17 18  1  0
 18 19  2  0
 16 20  1  0
 20 21  2  0
 20 22  1  0
 15 23  1  0
 23 24  1  0
 24 25  1  0
 25 26  2  0
 26 27  1  0
 27 28  2  0
 28 29  1  0
 29 30  1  0
 18  3  1  0
 17 12  1  0
 29 25  1  0
M  END

$$$$

     RDKit          3D

 17 18  0  0  0  0  0  0  0  0999 V2000
    4.4777    0.5222    0.9535 O   0  0  0  0  0  0  0  0  0  0  0  0
    3.4089    0.8199    0.1347 C   0  0  0  0  0  0  0  0  0  0  0  0
    3.3994    1.9716   -0.3810 O   0  0  0  0  0  0  0  0  0  0  0  0
    2.1397    0.1447    0.3703 C   0  0  0  0  0  0  0  0  0  0  0  0
    1.0519    0.7736    0.8026 C   0  0  0  0  0  0  0  0  0  0  0  0
   -0.2288    0.1672    0.4204 C   0  0  0  0  0  0  0  0  0  0  0  0
   -1.4458    0.7094    0.7633 C   0  0  0  0  0  0  0  0  0  0  0  0
   -2.5456    0.3642    0.0158 C   0  0  0  0  0  0  0  0  0  0  0  0
   -2.4196   -0.5180   -1.0501 C   0  0  0  0  0  0  0  0  0  0  0  0
   -1.3111   -1.3536   -1.0364 C   0  0  0  0  0  0  0  0  0  0  0  0
   -0.2438   -1.0815   -0.1900 C   0  0  0  0  0  0  0  0  0  0  0  0
    0.8890   -2.0335   -0.0210 C   0  0  0  0  0  0  0  0  0  0  0  0
    2.1178   -1.3156    0.3765 C   0  0  0  0  0  0  0  0  0  0  0  0
    3.1346   -1.9966    0.6932 O   0  0  0  0  0  0  0  0  0  0  0  0
   -3.8322    0.7826    0.4778 N   0  0  0  0  0  0  0  0  0  0  0  0
   -4.4604   -0.0726    1.1529 O   0  0  0  0  0  0  0  0  0  0  0  0
   -4.1318    2.1159    0.6772 O   0  0  0  0  0  0  0  0  0  0  0  0
  1  2  1  0
  2  3  2  0
  2  4  1  0
  4  5  2  0
  5  6  1  0
  6  7  2  0
  7  8  1  0
  8  9  2  0
  9 10  1  0
 10 11  2  0
 11 12  1  0
 12 13  1  0
 13 14  2  0
  8 15  1  0
 15 16  2  0
 15 17  1  0
 13  4  1  0
 11  6  1  0
M  CHG  2  15   1  17  -1
M  END

$$$$

     RDKit          3D

 18 20  0  0  0  0  0  0  0  0999 V2000
   -2.0251    2.5795    0.9560 C   0  0  0  0  0  0  0  0  0  0  0  0
   -1.4732    1.7477   -0.0337 C   0  0  0  0  0  0  0  0  0  0  0  0
   -1.0770    0.5669    0.2490 C   0  0  0  0  0  0  0  0  0  0  0  0
   -1.0404    0.0283    1.7165 C   0  0  2  0  0  0  0  0  0  0  0  0
    0.4190   -0.6396    1.5480 C   0  0  0  0  0  0  0  0  0  0  0  0
    1.1854    0.1565    0.5165 C   0  0  0  0  0  0  0  0  0  0  0  0
    0.6570    0.0755   -0.7970 C   0  0  0  0  0  0  0  0  0  0  0  0
    1.3779    0.6655   -1.8062 C   0  0  0  0  0  0  0  0  0  0  0  0
    2.6760    1.0268   -1.5231 C   0  0  0  0  0  0  0  0  0  0  0  0
    3.2498    0.5999   -0.3457 C   0  0  0  0  0  0  0  0  0  0  0  0
    4.4941    0.3663   -0.2684 O   0  0  0  0  0  0  0  0  0  0  0  0
    2.4416    0.6105    0.7421 N   0  0  0  0  0  0  0  0  0  0  0  0
   -0.6173   -0.4614   -0.7738 C   0  0  1  0  0  0  0  0  0  0  0  0
   -0.2440   -1.7727   -0.2051 N   0  0  0  0  0  0  0  0  0  0  0  0
   -1.8767   -0.7956   -1.1325 C   0  0  0  0  0  0  0  0  0  0  0  0
   -2.5814   -1.2248    0.1480 C   0  0  0  0  0  0  0  0  0  0  0  0
   -2.0027   -1.1776    1.3595 C   0  0  0  0  0  0  0  0  0  0  0  0
   -3.5628   -2.3517    0.0100 C   0  0  0  0  0  0  0  0  0  0  0  0
  1  2  1  0
  2  3  2  0
  3  4  1  0
  4  5  1  6
  5  6  1  0
  6  7  2  0
  7  8  1  0
  8  9  2  0
  9 10  1  0
 10 11  2  0
 10 12  1  0
  7 13  1  0
 13 14  1  1
 13 15  1  0
 15 16  1  0
 16 17  2  0
 16 18  1  0
  3 13  1  0
 17  4  1  0
 12  6  1  0
M  END

$$$$

     RDKit          3D

 26 30  0  0  0  0  0  0  0  0999 V2000
    2.8041   -0.1318   -0.7790 C   0  0  0  0  0  0  0  0  0  0  0  0
    3.8983    0.4103    0.0561 C   0  0  0  0  0  0  0  0  0  0  0  0
    3.6868    1.2358    1.1539 C   0  0  0  0  0  0  0  0  0  0  0  0
    4.3798    2.4325    1.2986 C   0  0  0  0  0  0  0  0  0  0  0  0
    5.5257    2.6620    0.5463 C   0  0  0  0  0  0  0  0  0  0  0  0
    5.9780    1.6081   -0.2375 C   0  0  0  0  0  0  0  0  0  0  0  0
    5.1864    0.4874   -0.4627 C   0  0  0  0  0  0  0  0  0  0  0  0
    1.6795   -0.6827    0.0402 C   0  0  0  0  0  0  0  0  0  0  0  0
    1.3857   -2.0062    0.0256 N   0  0  0  0  0  0  0  0  0  0  0  0
    0.1049   -2.4434   -0.0465 C   0  0  0  0  0  0  0  0  0  0  0  0
   -0.2323   -3.7707   -0.1480 C   0  0  0  0  0  0  0  0  0  0  0  0
   -1.5518   -4.1497   -0.3622 C   0  0  0  0  0  0  0  0  0  0  0  0
   -2.5127   -3.1979   -0.6773 C   0  0  0  0  0  0  0  0  0  0  0  0
   -2.0629   -1.9058   -0.8291 C   0  0  0  0  0  0  0  0  0  0  0  0
   -0.9516   -1.5403   -0.0799 C   0  0  0  0  0  0  0  0  0  0  0  0
   -0.6849   -0.2534    0.1321 N   0  0  0  0  0  0  0  0  0  0  0  0
   -1.5228    0.7787    0.3746 C   0  0  0  0  0  0  0  0  0  0  0  0
   -0.7372    1.7944    0.7814 N   0  0  0  0  0  0  0  0  0  0  0  0
    0.5291    1.4357    0.6339 N   0  0  0  0  0  0  0  0  0  0  0  0
    0.5963    0.1590    0.2578 C   0  0  0  0  0  0  0  0  0  0  0  0
   -2.9255    0.8453   -0.0534 C   0  0  0  0  0  0  0  0  0  0  0  0
   -3.8919    0.3231    0.7982 C   0  0  0  0  0  0  0  0  0  0  0  0
   -5.1986    0.3734    0.3346 C   0  0  0  0  0  0  0  0  0  0  0  0
   -5.5645    1.3393   -0.5940 C   0  0  0  0  0  0  0  0  0  0  0  0
   -4.6172    2.3199   -0.8616 C   0  0  0  0  0  0  0  0  0  0  0  0
   -3.3007    1.8772   -0.8956 C   0  0  0  0  0  0  0  0  0  0  0  0
  1  2  1  0
  2  3  2  0
  3  4  1  0
  4  5  2  0
  5  6  1  0
  6  7  2  0
  1  8  1  0
  8  9  2  0
  9 10  1  0
 10 11  2  0
 11 12  1  0
 12 13  2  0
 13 14  1  0
 14 15  2  0
 15 16  1  0
 16 17  1  0
 17 18  2  0
 18 19  1  0
 19 20  2  0
 17 21  1  0
 21 22  2  0
 22 23  1  0
 23 24  2  0
 24 25  1  0
 25 26  2  0
  7  2  1  0
 20  8  1  0
 15 10  1  0
 20 16  1  0
 26 21  1  0
M  END

$$$$

     RDKit          3D

 36 40  0  0  0  0  0  0  0  0999 V2000
    9.3014    0.4398   -0.8509 C   0  0  0  0  0  0  0  0  0  0  0  0
    8.3536    1.0495    0.1338 C   0  0  0  0  0  0  0  0  0  0  0  0
    8.2368    2.5356   -0.0434 C   0  0  0  0  0  0  0  0  0  0  0  0
    7.0571    0.3809    0.0072 N   0  0  0  0  0  0  0  0  0  0  0  0
    6.9688   -0.0589   -1.3471 C   0  0  0  0  0  0  0  0  0  0  0  0
    6.1801   -1.3011   -1.5784 C   0  0  0  0  0  0  0  0  0  0  0  0
    5.3296   -1.5911   -0.4419 N   0  0  0  0  0  0  0  0  0  0  0  0
    6.0094   -1.7006    0.8328 C   0  0  0  0  0  0  0  0  0  0  0  0
    7.0403   -0.6388    1.0034 C   0  0  0  0  0  0  0  0  0  0  0  0
    3.9778   -1.1800   -0.4844 C   0  0  0  0  0  0  0  0  0  0  0  0
    3.0328   -2.0622   -0.9622 C   0  0  0  0  0  0  0  0  0  0  0  0
    1.6840   -1.7587   -0.8743 C   0  0  0  0  0  0  0  0  0  0  0  0
    1.3019   -0.8625    0.1000 C   0  0  0  0  0  0  0  0  0  0  0  0
   -0.0087   -0.9061    0.5630 O   0  0  0  0  0  0  0  0  0  0  0  0
   -0.4791    0.0466    1.4610 C   0  0  0  0  0  0  0  0  0  0  0  0
   -1.7363    0.8170    0.8131 C   0  0  1  0  0  0  0  0  0  0  0  0
   -1.0797    0.9478   -0.6507 C   0  0  0  0  0  0  0  0  0  0  0  0
   -2.2257    0.7232   -1.4320 O   0  0  0  0  0  0  0  0  0  0  0  0
   -3.1926    0.1973   -0.6043 C   0  0  1  0  0  0  0  0  0  0  0  0
   -4.0412   -0.7625   -1.3795 C   0  0  0  0  0  0  0  0  0  0  0  0
   -4.5403   -1.8635   -0.5933 N   0  0  0  0  0  0  0  0  0  0  0  0
   -5.7507   -2.0683   -0.0663 C   0  0  0  0  0  0  0  0  0  0  0  0
   -5.5914   -2.8962    0.9698 N   0  0  0  0  0  0  0  0  0  0  0  0
   -4.3262   -3.3593    0.9507 C   0  0  0  0  0  0  0  0  0  0  0  0
   -3.7250   -2.7998   -0.1067 N   0  0  0  0  0  0  0  0  0  0  0  0
   -2.4504   -0.4207    0.4166 O   0  0  0  0  0  0  0  0  0  0  0  0
   -4.0656    1.2022    0.0258 C   0  0  0  0  0  0  0  0  0  0  0  0
   -4.7115    0.8577    1.2049 C   0  0  0  0  0  0  0  0  0  0  0  0
   -5.6246    1.7433    1.7539 C   0  0  0  0  0  0  0  0  0  0  0  0
   -6.0447    2.8699    1.0585 C   0  0  0  0  0  0  0  0  0  0  0  0
   -7.6854    3.4801    1.2441 Cl  0  0  0  0  0  0  0  0  0  0  0  0
   -5.2602    3.2960    0.0024 C   0  0  0  0  0  0  0  0  0  0  0  0
   -4.2728    2.4621   -0.4691 C   0  0  0  0  0  0  0  0  0  0  0  0
   -3.3554    3.0007   -1.8477 Cl  0  0  0  0  0  0  0  0  0  0  0  0
    2.1722    0.1722    0.3643 C   0  0  0  0  0  0  0  0  0  0  0  0
    3.5220    0.0087    0.0720 C   0  0  0  0  0  0  0  0  0  0  0  0
  1  2  1  0
  2  3  1  0
  2  4  1  0
  4  5  1  0
  5  6  1  0
  6  7  1  0
  7  8  1  0
  8  9  1  0
  7 10  1  0
 10 11  2  0
 11 12  1  0
 12 13  2  0
 13 14  1  0
 14 15  1  0
 16 15  1  1
 16 17  1  0
 17 18  1  0
 18 19  1  0
 19 20  1  6
 20 21  1  0
 21 22  1  0
 22 23  2  0
 23 24  1  0
 24 25  2  0
 19 26  1  0
 19 27  1  0
 27 28  2  0
 28 29  1  0
 29 30  2  0
 30 31  1  0
 30 32  1  0
 32 33  2  0
 33 34  1  0
 13 35  1  0
 35 36  2  0
  9  4  1  0
 36 10  1  0
 26 16  1  0
 25 21  1  0
 33 27  1  0
M  END

$$$$

     RDKit          3D

 14 15  0  0  0  0  0  0  0  0999 V2000
   -0.4431   -2.1100    1.7980 Cl  0  0  0  0  0  0  0  0  0  0  0  0
   -1.0779   -1.0646    0.5337 C   0  0  0  0  0  0  0  0  0  0  0  0
   -2.2256   -1.4721   -0.1201 C   0  0  0  0  0  0  0  0  0  0  0  0
   -2.7213   -0.6527   -1.1264 C   0  0  0  0  0  0  0  0  0  0  0  0
   -2.4377    0.6900   -1.0253 C   0  0  0  0  0  0  0  0  0  0  0  0
   -1.3913    1.1501   -0.2408 C   0  0  0  0  0  0  0  0  0  0  0  0
   -1.3412    2.8679    0.1285 Cl  0  0  0  0  0  0  0  0  0  0  0  0
   -0.8736    0.2972    0.7271 C   0  0  0  0  0  0  0  0  0  0  0  0
    0.4493    0.6353    1.1670 N   0  0  0  0  0  0  0  0  0  0  0  0
    1.4898    0.3361    0.2270 C   0  0  0  0  0  0  0  0  0  0  0  0
    1.4072   -0.4892   -0.7537 N   0  0  0  0  0  0  0  0  0  0  0  0
    2.7002   -0.8873   -1.2400 C   0  0  0  0  0  0  0  0  0  0  0  0
    3.5978    0.1754   -0.6408 C   0  0  0  0  0  0  0  0  0  0  0  0
    2.8677    0.5239    0.5658 N   0  0  0  0  0  0  0  0  0  0  0  0
  1  2  1  0
  2  3  2  0
  3  4  1  0
  4  5  2  0
  5  6  1  0
  6  7  1  0
  6  8  2  0
  8  9  1  0
  9 10  1  0
 10 11  2  0
 11 12  1  0
 12 13  1  0
 13 14  1  0
  8  2  1  0
 14 10  1  0
M  END

$$$$

     RDKit          3D

 12 12  0  0  0  0  0  0  0  0999 V2000
   -4.0907   -0.0489    0.4723 O   0  0  0  0  0  0  0  0  0  0  0  0
   -3.4061    0.0620    0.1708 C   0  0  0  0  0  0  0  0  0  0  0  0
   -3.0121    1.2233   -0.1694 O   0  0  0  0  0  0  0  0  0  0  0  0
   -2.4070   -1.0272   -0.0993 C   0  0  0  0  0  0  0  0  0  0  0  0
   -1.0561   -0.6887    0.5080 C   0  0  0  0  0  0  0  0  0  0  0  0
   -0.0957   -1.7951    0.1202 C   0  0  0  0  0  0  0  0  0  0  0  0
    1.3312   -1.4426    0.4337 C   0  0  0  0  0  0  0  0  0  0  0  0
    1.8575   -0.4771   -0.6919 C   0  0  2  0  0  0  0  0  0  0  0  0
    3.2582   -0.1584   -0.0533 C   0  0  0  0  0  0  0  0  0  0  0  0
    3.8352    0.9349   -0.9326 C   0  0  0  0  0  0  0  0  0  0  0  0
    2.7468    2.3289   -0.4514 S   0  0  0  0  0  0  0  0  0  0  0  0
    1.0387    1.0888   -0.0422 S   0  0  0  0  0  0  0  0  0  0  0  0
  1  2  1  0
  2  3  2  0
  2  4  1  0
  4  5  1  0
  5  6  1  0
  6  7  1  0
  8  7  1  1
  8  9  1  0
  9 10  1  0
 10 11  1  0
 11 12  1  0
 12  8  1  0
M  END

$$$$

     RDKit          3D

 10 11  0  0  0  0  0  0  0  0999 V2000
   -1.9852    2.1387    0.3600 S   0  0  0  0  0  0  0  0  0  0  0  0
   -1.1194    0.6066    0.6489 C   0  0  0  0  0  0  0  0  0  0  0  0
   -1.8273   -0.5422    0.7909 N   0  0  0  0  0  0  0  0  0  0  0  0
   -1.3465   -1.6919    0.2553 C   0  0  0  0  0  0  0  0  0  0  0  0
   -0.1187   -1.7814   -0.2964 N   0  0  0  0  0  0  0  0  0  0  0  0
    0.7337   -0.7876    0.0299 C   0  0  0  0  0  0  0  0  0  0  0  0
    2.0258   -0.5356   -0.2539 N   0  0  0  0  0  0  0  0  0  0  0  0
    2.2112    0.7935   -0.4472 C   0  0  0  0  0  0  0  0  0  0  0  0
    1.2001    1.3606    0.2429 N   0  0  0  0  0  0  0  0  0  0  0  0
    0.2263    0.4393    0.4423 C   0  0  0  0  0  0  0  0  0  0  0  0
  1  2  1  0
  2  3  2  0
  3  4  1  0
  4  5  2  0
  5  6  1  0
  6  7  1  0
  7  8  2  0
  8  9  1  0
  9 10  1  0
 10  2  1  0
 10  6  2  0
M  END

$$$$

     RDKit          3D

 32 35  0  0  0  0  0  0  0  0999 V2000
    2.4014   -3.0185    0.3631 C   0  0  0  0  0  0  0  0  0  0  0  0
    2.2748   -1.4603    0.7131 C   0  0  2  0  0  0  0  0  0  0  0  0
    1.1394   -1.1823   -0.4566 C   0  0  1  0  0  0  0  0  0  0  0  0
   -0.1145   -1.1265    0.6372 C   0  0  2  0  0  0  0  0  0  0  0  0
   -0.1628   -2.5984    0.7814 O   0  0  0  0  0  0  0  0  0  0  0  0
   -1.3167   -1.1064   -0.5149 C   0  0  1  0  0  0  0  0  0  0  0  0
   -2.5138   -0.9864    0.6489 C   0  0  2  0  0  0  0  0  0  0  0  0
   -3.0541   -2.4015    0.3757 N   0  0  0  0  0  0  0  0  0  0  0  0
   -3.3408   -2.4592   -1.0197 C   0  0  0  0  0  0  0  0  0  0  0  0
   -4.1518   -2.6470    1.2594 C   0  0  0  0  0  0  0  0  0  0  0  0
   -3.5866   -0.2300   -0.2493 C   0  0  0  0  0  0  0  0  0  0  0  0
   -3.3638    1.0746   -0.0491 C   0  0  0  0  0  0  0  0  0  0  0  0
   -4.3370    2.0892    0.2640 C   0  0  0  0  0  0  0  0  0  0  0  0
   -5.2724    2.2206   -0.5851 O   0  0  0  0  0  0  0  0  0  0  0  0
   -3.8163    3.3294    0.7649 N   0  0  0  0  0  0  0  0  0  0  0  0
   -1.9055    1.2882   -0.0061 C   0  0  0  0  0  0  0  0  0  0  0  0
   -1.4643    2.4176    0.2836 O   0  0  0  0  0  0  0  0  0  0  0  0
   -1.1906    0.4196   -0.9321 C   0  0  2  0  0  0  0  0  0  0  0  0
   -1.7472    0.4003   -2.2266 O   0  0  0  0  0  0  0  0  0  0  0  0
    0.1790    0.8499   -1.1284 C   0  0  0  0  0  0  0  0  0  0  0  0
    1.2514    0.3797   -0.4860 C   0  0  0  0  0  0  0  0  0  0  0  0
    2.5119    1.0063   -0.8064 C   0  0  0  0  0  0  0  0  0  0  0  0
    2.5481    2.2673   -0.8948 O   0  0  0  0  0  0  0  0  0  0  0  0
    3.7100    0.3300   -0.2883 C   0  0  0  0  0  0  0  0  0  0  0  0
    4.8786    0.9914   -0.0321 C   0  0  0  0  0  0  0  0  0  0  0  0
    4.9112    2.3913   -0.0807 O   0  0  0  0  0  0  0  0  0  0  0  0
    6.0131    0.2550    0.2529 C   0  0  0  0  0  0  0  0  0  0  0  0
    5.9195   -1.1278    0.1994 C   0  0  0  0  0  0  0  0  0  0  0  0
    4.7024   -1.7429    0.1183 C   0  0  0  0  0  0  0  0  0  0  0  0
    3.5186   -1.0431   -0.1596 C   0  0  0  0  0  0  0  0  0  0  0  0
    0.3048    2.0272   -1.8818 O   0  0  0  0  0  0  0  0  0  0  0  0
   -4.9259   -0.6071    0.0005 O   0  0  0  0  0  0  0  0  0  0  0  0
  2  1  1  6
  2  3  1  0
  3  4  1  0
  4  5  1  1
  4  6  1  0
  6  7  1  1
  7  8  1  6
  8  9  1  0
  8 10  1  0
  7 11  1  0
 11 12  2  0
 12 13  1  0
 13 14  2  0
 13 15  1  0
 12 16  1  0
 16 17  2  0
 16 18  1  0
 18 19  1  6
 18 20  1  0
 20 21  2  0
 21 22  1  0
 22 23  2  0
 22 24  1  0
 24 25  2  0
 25 26  1  0
 25 27  1  0
 27 28  2  0
 28 29  1  0
 29 30  2  0
 20 31  1  0
 11 32  1  0
 30  2  1  0
  3 21  1  1
 18  6  1  0
 30 24  1  0
M  END

$$$$

     RDKit          3D

 25 29  0  0  0  0  0  0  0  0999 V2000
    1.3451    0.5901   -0.1863 C   0  0  0  0  0  0  0  0  0  0  0  0
    1.4885    0.0036   -0.0877 C   0  0  2  0  0  0  0  0  0  0  0  0
    2.4258   -0.1528    1.0574 C   0  0  0  0  0  0  0  0  0  0  0  0
    3.7021    0.4872    0.6220 C   0  0  0  0  0  0  0  0  0  0  0  0
    4.3979    1.6292    0.9970 C   0  0  0  0  0  0  0  0  0  0  0  0
    5.5490    1.5383    0.2862 N   0  0  0  0  0  0  0  0  0  0  0  0
    5.1954    1.0156   -0.8606 O   0  0  0  0  0  0  0  0  0  0  0  0
    4.1185    0.2673   -0.6858 C   0  0  0  0  0  0  0  0  0  0  0  0
    3.2458   -0.3547   -1.6839 C   0  0  0  0  0  0  0  0  0  0  0  0
    1.9863   -0.5714   -1.3664 C   0  0  0  0  0  0  0  0  0  0  0  0
    1.1126   -1.0589   -2.4376 C   0  0  0  0  0  0  0  0  0  0  0  0
   -0.3356   -1.1064   -2.1176 C   0  0  0  0  0  0  0  0  0  0  0  0
   -0.6845   -0.0669   -0.9623 C   0  0  2  0  0  0  0  0  0  0  0  0
    0.1813   -0.8731    0.1938 C   0  0  2  0  0  0  0  0  0  0  0  0
   -0.2940    0.0352    1.4192 C   0  0  0  0  0  0  0  0  0  0  0  0
   -1.7188   -0.4473    1.7251 C   0  0  0  0  0  0  0  0  0  0  0  0
   -2.4720    0.1781    0.6179 C   0  0  1  0  0  0  0  0  0  0  0  0
   -2.0617    1.5674    0.2734 C   0  0  0  0  0  0  0  0  0  0  0  0
   -2.1586   -0.7472   -0.6441 C   0  0  1  0  0  0  0  0  0  0  0  0
   -2.9468    0.2241   -1.6399 C   0  0  0  0  0  0  0  0  0  0  0  0
   -4.1437    0.6445   -0.8367 C   0  0  0  0  0  0  0  0  0  0  0  0
   -3.9361    0.0705    0.5678 C   0  0  2  0  0  0  0  0  0  0  0  0
   -4.6476    0.8329    1.4719 O   0  0  0  0  0  0  0  0  0  0  0  0
   -4.4077   -1.3221    0.5140 C   0  0  0  0  0  0  0  0  0  0  0  0
   -4.9408   -2.3833    0.4396 C   0  0  0  0  0  0  0  0  0  0  0  0
  2  1  1  6
  2  3  1  0
  3  4  1  0
  4  5  1  0
  5  6  2  0
  6  7  1  0
  7  8  1  0
  8  9  1  0
  9 10  2  0
 10 11  1  0
 11 12  1  0
 13 12  1  6
 13 14  1  0
 14 15  1  1
 15 16  1  0
 16 17  1  0
 17 18  1  6
 17 19  1  0
 19 20  1  6
 20 21  1  0
 21 22  1  0
 22 23  1  1
 22 24  1  0
 24 25  3  0
 10  2  1  0
 14  2  1  0
  8  4  2  0
 19 13  1  0
 22 17  1  0
M  END

$$$$

     RDKit          3D

 24 26  0  0  0  0  0  0  0  0999 V2000
    7.2137    1.2699   -0.6176 C   0  0  0  0  0  0  0  0  0  0  0  0
    6.8209    0.0156   -0.1256 O   0  0  0  0  0  0  0  0  0  0  0  0
    5.5014   -0.3138    0.1170 C   0  0  0  0  0  0  0  0  0  0  0  0
    5.2656   -1.2836    1.0709 C   0  0  0  0  0  0  0  0  0  0  0  0
    3.9835   -1.4150    1.5530 C   0  0  0  0  0  0  0  0  0  0  0  0
    2.9420   -1.0885    0.7134 C   0  0  0  0  0  0  0  0  0  0  0  0
    1.6784   -1.5018    0.6391 N   0  0  0  0  0  0  0  0  0  0  0  0
    1.0511   -0.9055   -0.4025 C   0  0  0  0  0  0  0  0  0  0  0  0
    2.0050   -0.2328   -1.0530 N   0  0  0  0  0  0  0  0  0  0  0  0
    3.1678   -0.2511   -0.3647 C   0  0  0  0  0  0  0  0  0  0  0  0
    4.4316    0.2685   -0.5386 C   0  0  0  0  0  0  0  0  0  0  0  0
   -0.5571   -1.3580   -0.8869 S   0  0  0  0  0  0  0  0  0  0  0  0
   -0.5855   -2.7270   -1.8424 O   0  0  0  0  0  0  0  0  0  0  0  0
   -1.4753   -0.0170   -1.5676 C   0  0  0  0  0  0  0  0  0  0  0  0
   -2.3505    0.5873   -0.5239 C   0  0  0  0  0  0  0  0  0  0  0  0
   -2.1233    1.8657   -0.1407 N   0  0  0  0  0  0  0  0  0  0  0  0
   -3.1028    2.6768    0.2627 C   0  0  0  0  0  0  0  0  0  0  0  0
   -4.4074    2.2190    0.3647 C   0  0  0  0  0  0  0  0  0  0  0  0
   -5.5833    3.1250    0.2932 C   0  0  0  0  0  0  0  0  0  0  0  0
   -4.5636    0.8411    0.3167 C   0  0  0  0  0  0  0  0  0  0  0  0
   -5.8408    0.2977    0.3913 O   0  0  0  0  0  0  0  0  0  0  0  0
   -6.1640   -0.6857    1.3662 C   0  0  0  0  0  0  0  0  0  0  0  0
   -3.5695    0.0350   -0.1705 C   0  0  0  0  0  0  0  0  0  0  0  0
   -3.7379   -1.4219   -0.3515 C   0  0  0  0  0  0  0  0  0  0  0  0
  1  2  1  0
  2  3  1  0
  3  4  2  0
  4  5  1  0
  5  6  2  0
  6  7  1  0
  7  8  1  0
  8  9  2  0
  9 10  1  0
 10 11  2  0
  8 12  1  0
 12 13  1  0
 12 14  1  0
 14 15  1  0
 15 16  2  0
 16 17  1  0
 17 18  2  0
 18 19  1  0
 18 20  1  0
 20 21  1  0
 21 22  1  0
 20 23  2  0
 23 24  1  0
 11  3  1  0
 10  6  1  0
 23 15  1  0
M  CHG  2  12   1  13  -1
M  END

$$$$

     RDKit          3D

 11 10  0  0  0  0  0  0  0  0999 V2000
   -2.5866    0.9924    1.3739 C   0  0  0  0  0  0  0  0  0  0  0  0
   -1.7337    0.6120    0.2053 C   0  0  0  0  0  0  0  0  0  0  0  0
   -2.2560    1.0906   -1.1167 C   0  0  0  0  0  0  0  0  0  0  0  0
   -1.3076   -0.8291    0.2022 C   0  0  0  0  0  0  0  0  0  0  0  0
   -2.0402   -1.8277   -1.2676 Br  0  0  0  0  0  0  0  0  0  0  0  0
    0.1848   -0.8323    0.0936 C   0  0  0  0  0  0  0  0  0  0  0  0
    0.7638   -1.4622    1.0309 O   0  0  0  0  0  0  0  0  0  0  0  0
    0.8852    0.2993   -0.4406 N   0  0  0  0  0  0  0  0  0  0  0  0
    2.2597    0.5496   -0.1197 C   0  0  0  0  0  0  0  0  0  0  0  0
    2.9440   -0.3794    0.3954 O   0  0  0  0  0  0  0  0  0  0  0  0
    2.8866    1.7868   -0.3568 N   0  0  0  0  0  0  0  0  0  0  0  0
  1  2  1  0
  2  3  1  0
  2  4  1  0
  4  5  1  0
  4  6  1  0
  6  7  2  0
  6  8  1  0
  8  9  1  0
  9 10  2  0
  9 11  1  0
M  END

$$$$

     RDKit          3D

 18 19  0  0  0  0  0  0  0  0999 V2000
   -2.6218   -2.2870   -0.3317 N   0  0  0  0  0  0  0  0  0  0  0  0
   -2.4060   -0.8894   -0.1162 C   0  0  0  0  0  0  0  0  0  0  0  0
   -3.3423   -0.2607    0.6896 C   0  0  0  0  0  0  0  0  0  0  0  0
   -4.3478   -1.2242    2.0062 Br  0  0  0  0  0  0  0  0  0  0  0  0
   -3.3720    1.1260    0.6151 C   0  0  0  0  0  0  0  0  0  0  0  0
   -2.2408    1.7865    0.1505 C   0  0  0  0  0  0  0  0  0  0  0  0
   -2.1921    3.6967   -0.0058 Br  0  0  0  0  0  0  0  0  0  0  0  0
   -1.1001    1.0753   -0.2010 C   0  0  0  0  0  0  0  0  0  0  0  0
   -1.3034   -0.2293   -0.6328 C   0  0  0  0  0  0  0  0  0  0  0  0
   -0.2304   -1.0289   -1.2808 C   0  0  0  0  0  0  0  0  0  0  0  0
    0.5531   -1.7299   -0.2897 N   0  0  0  0  0  0  0  0  0  0  0  0
    1.9113   -1.2682   -0.3475 C   0  0  1  0  0  0  0  0  0  0  0  0
    2.1364   -0.1940   -1.3794 C   0  0  0  0  0  0  0  0  0  0  0  0
    3.0175    0.9194   -0.8806 C   0  0  0  0  0  0  0  0  0  0  0  0
    4.2556    0.4066   -0.1818 C   0  0  1  0  0  0  0  0  0  0  0  0
    4.9291    1.4893    0.3587 O   0  0  0  0  0  0  0  0  0  0  0  0
    3.9345   -0.6471    0.8438 C   0  0  0  0  0  0  0  0  0  0  0  0
    2.4193   -0.7412    0.9832 C   0  0  0  0  0  0  0  0  0  0  0  0
  1  2  1  0
  2  3  2  0
  3  4  1  0
  3  5  1  0
  5  6  2  0
  6  7  1  0
  6  8  1  0
  8  9  2  0
  9 10  1  0
 10 11  1  0
 12 11  1  6
 12 13  1  0
 13 14  1  0
 14 15  1  0
 15 16  1  1
 15 17  1  0
 17 18  1  0
  9  2  1  0
 18 12  1  0
M  END

$$$$

     RDKit          3D

 16 15  0  0  0  0  0  0  0  0999 V2000
   -4.1165   -0.3501   -0.1597 C   0  0  0  0  0  0  0  0  0  0  0  0
   -3.8690    0.0920    0.1834 N   0  0  0  0  0  0  0  0  0  0  0  0
   -4.5126    1.3948    0.0231 C   0  0  0  0  0  0  0  0  0  0  0  0
   -3.9166   -0.1886    1.6170 C   0  0  0  0  0  0  0  0  0  0  0  0
   -2.4574    0.3184   -0.1209 C   0  0  0  0  0  0  0  0  0  0  0  0
   -1.9114   -1.0224   -0.5811 C   0  0  0  0  0  0  0  0  0  0  0  0
   -0.9480   -1.4144    0.3578 O   0  0  0  0  0  0  0  0  0  0  0  0
    0.5465   -0.8915   -0.2558 P   0  0  0  0  0  0  0  0  0  0  0  0
    0.3631    0.5279   -0.7248 O   0  0  0  0  0  0  0  0  0  0  0  0
    0.9145   -1.9152   -1.5630 O   0  0  0  0  0  0  0  0  0  0  0  0
    1.7432   -0.9737    0.9321 O   0  0  0  0  0  0  0  0  0  0  0  0
    2.8924   -0.3757    0.4266 C   0  0  0  0  0  0  0  0  0  0  0  0
    2.8593    1.0816    1.1328 C   0  0  2  0  0  0  0  0  0  0  0  0
    2.9037    1.8179   -0.1604 O   0  0  0  0  0  0  0  0  0  0  0  0
    4.4624    1.1389    1.3522 C   0  0  0  0  0  0  0  0  0  0  0  0
    5.0462    0.7602    0.1578 O   0  0  0  0  0  0  0  0  0  0  0  0
  1  2  1  0
  2  3  1  0
  2  4  1  0
  2  5  1  0
  5  6  1  0
  6  7  1  0
  7  8  1  0
  8  9  2  0
  8 10  1  0
  8 11  1  0
 11 12  1  0
 13 12  1  6
 13 14  1  0
 13 15  1  0
 15 16  1  0
M  CHG  2   2   1  10  -1
M  END

$$$$

     RDKit          3D

 21 23  0  0  0  0  0  0  0  0999 V2000
    5.7619    1.9215   -1.2258 C   0  0  0  0  0  0  0  0  0  0  0  0
    4.5314    1.2692   -1.6259 N   0  0  0  0  0  0  0  0  0  0  0  0
    3.9360    0.3569   -0.7146 C   0  0  0  0  0  0  0  0  0  0  0  0
    4.0569    0.4894    0.5377 O   0  0  0  0  0  0  0  0  0  0  0  0
    3.0114   -0.6180   -1.0953 O   0  0  0  0  0  0  0  0  0  0  0  0
    1.7754   -0.7484   -0.4521 C   0  0  0  0  0  0  0  0  0  0  0  0
    0.6682   -0.3576   -1.1930 C   0  0  0  0  0  0  0  0  0  0  0  0
   -0.5725   -0.5781   -0.6055 C   0  0  0  0  0  0  0  0  0  0  0  0
   -1.8828   -0.5186   -1.0370 C   0  0  0  0  0  0  0  0  0  0  0  0
   -2.7556   -0.5901   -2.2176 C   0  0  0  0  0  0  0  0  0  0  0  0
   -3.9774    0.2366   -1.9344 C   0  0  0  0  0  0  0  0  0  0  0  0
   -3.8282    0.6612   -0.5067 C   0  0  0  0  0  0  0  0  0  0  0  0
   -4.4750    1.6046    0.1092 N   0  0  0  0  0  0  0  0  0  0  0  0
   -3.7469    2.5090    0.9940 C   0  0  0  0  0  0  0  0  0  0  0  0
   -2.6215    0.0057    0.0164 C   0  0  0  0  0  0  0  0  0  0  0  0
   -1.8477   -0.0971    1.1262 N   0  0  0  0  0  0  0  0  0  0  0  0
   -2.4074   -0.1453    2.4667 C   0  0  0  0  0  0  0  0  0  0  0  0
   -0.6662   -0.6598    0.7779 C   0  0  0  0  0  0  0  0  0  0  0  0
    0.4590   -1.0999    1.4625 C   0  0  0  0  0  0  0  0  0  0  0  0
    1.6868   -1.2394    0.8292 C   0  0  0  0  0  0  0  0  0  0  0  0
    2.8943   -2.4018    1.3506 Cl  0  0  0  0  0  0  0  0  0  0  0  0
  1  2  1  0
  2  3  1  0
  3  4  2  0
  3  5  1  0
  5  6  1  0
  6  7  2  0
  7  8  1  0
  8  9  1  0
  9 10  1  0
 10 11  1  0
 11 12  1  0
 12 13  2  0
 13 14  1  0
 12 15  1  0
 15 16  1  0
 16 17  1  0
 16 18  1  0
 18 19  1  0
 19 20  2  0
 20 21  1  0
 20  6  1  0
 18  8  2  0
 15  9  2  0
M  END

$$$$

     RDKit          3D

 29 31  0  0  0  0  0  0  0  0999 V2000
    6.7917    0.6806    0.2776 C   0  0  0  0  0  0  0  0  0  0  0  0
    6.6226   -0.5043    0.7434 C   0  0  0  0  0  0  0  0  0  0  0  0
    7.9686   -1.1807    0.9173 C   0  0  0  0  0  0  0  0  0  0  0  0
    5.8061   -1.3280   -0.2443 C   0  0  0  0  0  0  0  0  0  0  0  0
    4.3325   -0.9638   -0.1312 C   0  0  0  0  0  0  0  0  0  0  0  0
    4.2209    0.4982   -0.4151 C   0  0  0  0  0  0  0  0  0  0  0  0
    2.8711    0.7783   -1.2191 C   0  0  1  0  0  0  0  0  0  0  0  0
    3.0234   -0.4690   -2.2090 C   0  0  0  0  0  0  0  0  0  0  0  0
    1.8276   -0.0037   -0.1948 C   0  0  1  0  0  0  0  0  0  0  0  0
    2.3300    0.6026    1.2077 C   0  0  0  0  0  0  0  0  0  0  0  0
    1.0288    1.0416    1.8944 C   0  0  0  0  0  0  0  0  0  0  0  0
   -0.0079    0.3161    0.9138 C   0  0  1  0  0  0  0  0  0  0  0  0
   -1.2644    1.2682    0.9856 C   0  0  0  0  0  0  0  0  0  0  0  0
   -2.2150    0.7279    0.2041 C   0  0  0  0  0  0  0  0  0  0  0  0
   -3.5802    1.0108    0.6710 C   0  0  0  0  0  0  0  0  0  0  0  0
   -4.4398    0.0829    0.2424 C   0  0  0  0  0  0  0  0  0  0  0  0
   -5.3866   -0.6923    1.0245 C   0  0  0  0  0  0  0  0  0  0  0  0
   -4.7882   -2.1601    1.3260 C   0  0  1  0  0  0  0  0  0  0  0  0
   -5.8627   -2.8683    0.5810 O   0  0  0  0  0  0  0  0  0  0  0  0
   -3.6936   -2.2425    0.1486 C   0  0  0  0  0  0  0  0  0  0  0  0
   -4.5159   -1.9735   -1.2096 C   0  0  2  0  0  0  0  0  0  0  0  0
   -3.3358   -2.2847   -2.0640 O   0  0  0  0  0  0  0  0  0  0  0  0
   -4.2691   -0.4120   -1.1329 C   0  0  0  0  0  0  0  0  0  0  0  0
   -3.5014    0.2108   -1.9397 C   0  0  0  0  0  0  0  0  0  0  0  0
   -1.1430    2.6343    0.5208 C   0  0  0  0  0  0  0  0  0  0  0  0
   -0.7720    2.5922   -0.9542 C   0  0  0  0  0  0  0  0  0  0  0  0
   -0.1448    1.2749   -1.4049 C   0  0  0  0  0  0  0  0  0  0  0  0
    0.6743    1.0566   -0.3241 C   0  0  2  0  0  0  0  0  0  0  0  0
    1.4230    2.3069    0.0427 C   0  0  0  0  0  0  0  0  0  0  0  0
  1  2  1  0
  2  3  1  0
  2  4  1  0
  4  5  1  0
  5  6  1  0
  7  6  1  1
  7  8  1  0
  7  9  1  0
  9 10  1  1
 10 11  1  0
 12 11  1  1
 12 13  1  0
 13 14  2  0
 14 15  1  0
 15 16  2  0
 16 17  1  0
 17 18  1  0
 18 19  1  6
 18 20  1  0
 20 21  1  0
 21 22  1  6
 21 23  1  0
 23 24  2  0
 13 25  1  0
 25 26  1  0
 26 27  1  0
 27 28  1  0
 28 29  1  1
 28  9  1  0
 28 12  1  0
 16 23  1  0
M  END

$$$$

     RDKit          3D

 21 23  0  0  0  0  0  0  0  0999 V2000
    5.0244    0.7838   -0.9566 C   0  0  0  0  0  0  0  0  0  0  0  0
    3.9630   -0.0661   -0.4522 N   0  0  0  0  0  0  0  0  0  0  0  0
    4.6132   -1.2916    0.0055 C   0  0  0  0  0  0  0  0  0  0  0  0
    3.2470    0.5222    0.6496 C   0  0  0  0  0  0  0  0  0  0  0  0
    1.8719    1.0119    0.2678 C   0  0  0  0  0  0  0  0  0  0  0  0
    1.1997    0.0655   -0.6691 C   0  0  0  0  0  0  0  0  0  0  0  0
   -0.1238    0.0435   -0.6817 C   0  0  0  0  0  0  0  0  0  0  0  0
   -0.6809   -1.3036   -0.5007 C   0  0  0  0  0  0  0  0  0  0  0  0
    0.1754   -2.2648   -0.9696 C   0  0  0  0  0  0  0  0  0  0  0  0
   -0.1810   -3.5972   -0.8489 C   0  0  0  0  0  0  0  0  0  0  0  0
   -1.1524   -3.9128    0.0925 C   0  0  0  0  0  0  0  0  0  0  0  0
   -2.1295   -2.9848    0.4201 C   0  0  0  0  0  0  0  0  0  0  0  0
   -1.8958   -1.6636    0.0716 C   0  0  0  0  0  0  0  0  0  0  0  0
   -3.0289   -0.8479    0.5448 C   0  0  0  0  0  0  0  0  0  0  0  0
   -3.1040    0.4262   -0.0278 O   0  0  0  0  0  0  0  0  0  0  0  0
   -2.1557    1.4536   -0.0314 C   0  0  0  0  0  0  0  0  0  0  0  0
   -2.6933    2.7165    0.0395 C   0  0  0  0  0  0  0  0  0  0  0  0
   -1.7854    3.7685    0.0762 C   0  0  0  0  0  0  0  0  0  0  0  0
   -0.4405    3.5526    0.2954 C   0  0  0  0  0  0  0  0  0  0  0  0
    0.0812    2.3020    0.0383 C   0  0  0  0  0  0  0  0  0  0  0  0
   -0.8047    1.2860   -0.3009 C   0  0  0  0  0  0  0  0  0  0  0  0
  1  2  1  0
  2  3  1  0
  2  4  1  0
  4  5  1  0
  5  6  1  0
  6  7  2  3
  7  8  1  0
  8  9  2  0
  9 10  1  0
 10 11  2  0
 11 12  1  0
 12 13  2  0
 13 14  1  0
 14 15  1  0
 15 16  1  0
 16 17  2  0
 17 18  1  0
 18 19  2  0
 19 20  1  0
 20 21  2  0
 21  7  1  0
 13  8  1  0
 21 16  1  0
M  END

$$$$

     RDKit          3D

 19 20  0  0  0  0  0  0  0  0999 V2000
    4.1693    2.7982   -0.0600 C   0  0  0  0  0  0  0  0  0  0  0  0
    4.9379    1.5777   -0.5077 C   0  0  0  0  0  0  0  0  0  0  0  0
    4.4256    0.3538    0.0700 N   0  0  0  0  0  0  0  0  0  0  0  0
    4.7993   -0.8029   -0.7067 C   0  0  0  0  0  0  0  0  0  0  0  0
    4.6000   -2.0675    0.0951 C   0  0  0  0  0  0  0  0  0  0  0  0
    3.0218    0.4164    0.3754 C   0  0  0  0  0  0  0  0  0  0  0  0
    2.1547   -0.2942   -0.6333 C   0  0  0  0  0  0  0  0  0  0  0  0
    1.1038   -0.9618   -0.0267 O   0  0  0  0  0  0  0  0  0  0  0  0
    0.6980   -0.3035    1.1432 C   0  0  0  0  0  0  0  0  0  0  0  0
   -0.6544   -0.7938    1.5801 C   0  0  0  0  0  0  0  0  0  0  0  0
   -1.7648   -0.0550    0.8936 C   0  0  0  0  0  0  0  0  0  0  0  0
   -1.5310    0.7648   -0.1396 C   0  0  0  0  0  0  0  0  0  0  0  0
   -2.4491    0.7550   -1.3250 C   0  0  0  0  0  0  0  0  0  0  0  0
   -3.5960   -0.2246   -1.1030 C   0  0  0  0  0  0  0  0  0  0  0  0
   -3.0899   -1.5239   -0.4844 C   0  0  0  0  0  0  0  0  0  0  0  0
   -3.0790   -0.7773    0.8455 C   0  0  0  0  0  0  0  0  0  0  0  0
   -4.1731    0.0925    0.2722 C   0  0  0  0  0  0  0  0  0  0  0  0
   -5.5243   -0.5179    0.4999 C   0  0  0  0  0  0  0  0  0  0  0  0
   -4.0483    1.5639    0.5410 C   0  0  0  0  0  0  0  0  0  0  0  0
  1  2  1  0
  2  3  1  0
  3  4  1  0
  4  5  1  0
  3  6  1  0
  6  7  1  0
  7  8  1  0
  8  9  1  0
  9 10  1  0
 10 11  1  0
 11 12  2  0
 12 13  1  0
 13 14  1  0
 14 15  1  0
 15 16  1  0
 16 17  1  0
 17 18  1  0
 17 19  1  0
 16 11  1  0
 17 14  1  0
M  END

$$$$

     RDKit          3D

 32 34  0  0  0  0  0  0  0  0999 V2000
    5.4753    2.7137   -0.1336 N   0  0  0  0  0  0  0  0  0  0  0  0
    5.0498    1.6699   -0.9820 C   0  0  0  0  0  0  0  0  0  0  0  0
    4.9980    0.4483    0.0661 C   0  0  1  0  0  0  0  0  0  0  0  0
    3.5357    0.2086   -0.0556 O   0  0  0  0  0  0  0  0  0  0  0  0
    3.4384   -0.9468   -0.9900 C   0  0  2  0  0  0  0  0  0  0  0  0
    1.9977   -1.2523   -0.8648 O   0  0  0  0  0  0  0  0  0  0  0  0
    1.2717   -0.0366   -0.4831 C   0  0  2  0  0  0  0  0  0  0  0  0
    1.4154   -0.3170    1.1704 C   0  0  1  0  0  0  0  0  0  0  0  0
    1.4101    1.1676    1.5698 N   0  0  0  0  0  0  0  0  0  0  0  0
   -0.0262   -0.8426    1.5087 C   0  0  0  0  0  0  0  0  0  0  0  0
   -1.2256    0.1689    1.4651 C   0  0  1  0  0  0  0  0  0  0  0  0
   -0.5970    1.4665    1.9970 N   0  0  0  0  0  0  0  0  0  0  0  0
   -1.1830    0.4961   -0.1855 C   0  0  2  0  0  0  0  0  0  0  0  0
   -2.4257   -0.2013   -0.5746 O   0  0  0  0  0  0  0  0  0  0  0  0
   -3.0532   -0.6401    0.7186 C   0  0  1  0  0  0  0  0  0  0  0  0
   -3.8584    0.5970    1.0255 O   0  0  0  0  0  0  0  0  0  0  0  0
   -3.8479    1.3480   -0.2474 C   0  0  2  0  0  0  0  0  0  0  0  0
   -4.6298    2.6058    0.3723 C   0  0  0  0  0  0  0  0  0  0  0  0
   -4.9184    3.3703   -0.7319 O   0  0  0  0  0  0  0  0  0  0  0  0
   -5.2272    0.5934   -0.8154 C   0  0  1  0  0  0  0  0  0  0  0  0
   -5.2165    1.2767   -2.1268 O   0  0  0  0  0  0  0  0  0  0  0  0
   -4.4045   -0.7173   -1.4226 C   0  0  2  0  0  0  0  0  0  0  0  0
   -5.6399   -1.4726   -1.9084 N   0  0  0  0  0  0  0  0  0  0  0  0
   -4.3608   -1.4850    0.0531 C   0  0  1  0  0  0  0  0  0  0  0  0
   -3.5041   -2.5710   -0.4779 O   0  0  0  0  0  0  0  0  0  0  0  0
   -0.2169   -0.7981   -0.6423 C   0  0  1  0  0  0  0  0  0  0  0  0
   -0.4041   -0.4852   -2.0631 O   0  0  0  0  0  0  0  0  0  0  0  0
    3.9675   -2.1408    0.1219 C   0  0  2  0  0  0  0  0  0  0  0  0
    4.0833   -1.3171    1.4125 N   0  0  0  0  0  0  0  0  0  0  0  0
    5.5486   -1.9553   -0.1282 C   0  0  0  0  0  0  0  0  0  0  0  0
    5.5777   -0.6435   -1.0726 C   0  0  2  0  0  0  0  0  0  0  0  0
    6.9700   -0.3084   -0.7102 O   0  0  0  0  0  0  0  0  0  0  0  0
  1  2  1  0
  3  2  1  6
  3  4  1  0
  4  5  1  0
  5  6  1  1
  7  6  1  6
  7  8  1  0
  8  9  1  1
  8 10  1  0
 10 11  1  0
 11 12  1  1
 11 13  1  0
 13 14  1  6
 15 14  1  6
 15 16  1  0
 16 17  1  0
 17 18  1  1
 18 19  1  0
 17 20  1  0
 20 21  1  6
 20 22  1  0
 22 23  1  6
 22 24  1  0
 24 25  1  6
 13 26  1  0
 26 27  1  6
  5 28  1  0
 28 29  1  1
 28 30  1  0
 30 31  1  0
 31 32  1  1
 31  3  1  0
 26  7  1  0
 24 15  1  0
M  END

$$$$

     RDKit          3D

 16 17  0  0  0  0  0  0  0  0999 V2000
   -1.3607    3.2052   -0.2230 N   0  0  0  0  0  0  0  0  0  0  0  0
   -1.4292    1.8373    0.1994 C   0  0  0  0  0  0  0  0  0  0  0  0
   -0.3559    1.0235    0.1902 N   0  0  0  0  0  0  0  0  0  0  0  0
   -0.4853   -0.2781   -0.1063 C   0  0  0  0  0  0  0  0  0  0  0  0
   -1.7702   -0.7859   -0.2645 C   0  0  0  0  0  0  0  0  0  0  0  0
   -1.5682   -2.0704   -0.6135 N   0  0  0  0  0  0  0  0  0  0  0  0
   -0.2346   -2.3127   -0.6562 C   0  0  0  0  0  0  0  0  0  0  0  0
    0.4013   -1.3005   -0.0168 N   0  0  0  0  0  0  0  0  0  0  0  0
    1.5765   -1.3904    0.8462 C   0  0  0  0  0  0  0  0  0  0  0  0
    2.2801   -0.1950    0.8631 O   0  0  0  0  0  0  0  0  0  0  0  0
    3.1339   -0.2088   -0.2322 C   0  0  0  0  0  0  0  0  0  0  0  0
    4.3644    0.6010    0.1086 C   0  0  0  0  0  0  0  0  0  0  0  0
    4.8508    1.2862   -1.0135 O   0  0  0  0  0  0  0  0  0  0  0  0
   -2.8797   -0.0373    0.1143 C   0  0  0  0  0  0  0  0  0  0  0  0
   -3.8871   -0.6377    0.5688 O   0  0  0  0  0  0  0  0  0  0  0  0
   -2.6362    1.2636    0.3897 N   0  0  0  0  0  0  0  0  0  0  0  0
  1  2  1  0
  2  3  2  0
  3  4  1  0
  4  5  2  0
  5  6  1  0
  6  7  2  0
  7  8  1  0
  8  9  1  0
  9 10  1  0
 10 11  1  0
 11 12  1  0
 12 13  1  0
  5 14  1  0
 14 15  2  0
 14 16  1  0
 16  2  1  0
  8  4  1  0
M  END

$$$$

     RDKit          3D

 19 21  0  0  0  0  0  0  0  0999 V2000
   -3.8006   -1.3637   -0.9080 C   0  0  0  0  0  0  0  0  0  0  0  0
   -3.5626    0.0051   -1.2286 O   0  0  0  0  0  0  0  0  0  0  0  0
   -2.4772    0.6635   -0.6426 C   0  0  0  0  0  0  0  0  0  0  0  0
   -1.9486    1.8066   -1.2307 C   0  0  0  0  0  0  0  0  0  0  0  0
   -0.6976    2.2351   -0.8015 C   0  0  0  0  0  0  0  0  0  0  0  0
    0.1382    1.4283   -0.0381 C   0  0  0  0  0  0  0  0  0  0  0  0
    1.4916    1.2993   -0.3138 C   0  0  0  0  0  0  0  0  0  0  0  0
    2.0264    2.1591   -1.0451 O   0  0  0  0  0  0  0  0  0  0  0  0
    2.2164    0.1712    0.0088 C   0  0  0  0  0  0  0  0  0  0  0  0
    3.2993   -0.2208   -0.7556 C   0  0  0  0  0  0  0  0  0  0  0  0
    3.6185   -1.5649   -0.8709 C   0  0  0  0  0  0  0  0  0  0  0  0
    3.0271   -2.5023   -0.0345 C   0  0  0  0  0  0  0  0  0  0  0  0
    2.1847   -1.9948    0.9376 C   0  0  0  0  0  0  0  0  0  0  0  0
    1.5811   -0.7471    0.8324 C   0  0  0  0  0  0  0  0  0  0  0  0
    0.3314   -0.5517    1.1859 O   0  0  0  0  0  0  0  0  0  0  0  0
   -0.4451    0.3716    0.6479 C   0  0  0  0  0  0  0  0  0  0  0  0
   -1.8053    0.1420    0.4578 C   0  0  0  0  0  0  0  0  0  0  0  0
   -2.4466   -0.8258    1.2303 O   0  0  0  0  0  0  0  0  0  0  0  0
   -2.7314   -0.5106    2.5685 C   0  0  0  0  0  0  0  0  0  0  0  0
  1  2  1  0
  2  3  1  0
  3  4  2  0
  4  5  1  0
  5  6  2  0
  6  7  1  0
  7  8  2  0
  7  9  1  0
  9 10  2  0
 10 11  1  0
 11 12  2  0
 12 13  1  0
 13 14  2  0
 14 15  1  0
 15 16  1  0
 16 17  2  0
 17 18  1  0
 18 19  1  0
 17  3  1  0
 16  6  1  0
 14  9  1  0
M  END

$$$$

     RDKit          3D

 19 23  0  0  0  0  0  0  0  0999 V2000
   -2.9398    0.8086   -2.0926 Cl  0  0  0  0  0  0  0  0  0  0  0  0
   -1.8967    0.3948   -1.0783 C   0  0  0  0  0  0  0  0  0  0  0  0
   -1.8313    0.3788    0.2821 C   0  0  0  0  0  0  0  0  0  0  0  0
   -3.3801    0.2371    1.1695 Cl  0  0  0  0  0  0  0  0  0  0  0  0
   -0.5196   -0.4669    0.5461 C   0  0  1  0  0  0  0  0  0  0  0  0
    0.0888   -1.4772   -0.9188 Cl  0  0  0  0  0  0  0  0  0  0  0  0
    0.5459    0.4690    1.0928 C   0  0  1  0  0  0  0  0  0  0  0  0
    1.8575   -0.4481    1.3326 C   0  0  1  0  0  0  0  0  0  0  0  0
    2.1732   -1.0845   -0.0225 C   0  0  0  0  0  0  0  0  0  0  0  0
    1.9494    0.0711   -1.0071 C   0  0  2  0  0  0  0  0  0  0  0  0
    2.9082    1.2240   -0.3055 C   0  0  2  0  0  0  0  0  0  0  0  0
    4.0445    0.3031    0.3529 O   0  0  0  0  0  0  0  0  0  0  0  0
    2.8434    0.8747    1.2531 C   0  0  2  0  0  0  0  0  0  0  0  0
    0.6438    0.8481   -0.4698 C   0  0  1  0  0  0  0  0  0  0  0  0
   -0.6485    0.1020   -0.8558 C   0  0  2  0  0  0  0  0  0  0  0  0
   -0.8231    1.9461   -0.5007 Cl  0  0  0  0  0  0  0  0  0  0  0  0
   -1.1470   -0.9385    0.2000 C   0  0  0  0  0  0  0  0  0  0  0  0
   -2.3919   -1.8229   -0.6905 Cl  0  0  0  0  0  0  0  0  0  0  0  0
   -1.4769   -1.4192    1.7124 Cl  0  0  0  0  0  0  0  0  0  0  0  0
  1  2  1  0
  2  3  2  0
  3  4  1  0
  3  5  1  0
  5  6  1  6
  7  5  1  6
  7  8  1  0
  8  9  1  6
 10  9  1  1
 10 11  1  0
 11 12  1  6
 13 12  1  6
 10 14  1  0
 14 15  1  6
 15 16  1  1
 15 17  1  0
 17 18  1  0
 17 19  1  0
 15  2  1  0
 17  5  1  0
 14  7  1  0
 13  8  1  0
 13 11  1  0
M  END

$$$$

     RDKit          3D

 17 17  0  0  0  0  0  0  0  0999 V2000
    5.1286    1.2726    0.7265 N   0  0  0  0  0  0  0  0  0  0  0  0
    4.2508    0.1108    0.8401 C   0  0  0  0  0  0  0  0  0  0  0  0
    4.0162   -0.4013   -0.5441 C   0  0  0  0  0  0  0  0  0  0  0  0
    3.0914    0.1684   -1.3063 C   0  0  0  0  0  0  0  0  0  0  0  0
    3.2607    0.3681   -2.6490 F   0  0  0  0  0  0  0  0  0  0  0  0
    1.9162    0.7867   -0.6565 C   0  0  0  0  0  0  0  0  0  0  0  0
    0.7694    0.3574   -1.3885 O   0  0  0  0  0  0  0  0  0  0  0  0
   -0.3089   -0.2001   -0.6937 C   0  0  0  0  0  0  0  0  0  0  0  0
   -0.1504   -1.3420    0.0821 C   0  0  0  0  0  0  0  0  0  0  0  0
   -0.8664   -1.4685    1.2660 C   0  0  0  0  0  0  0  0  0  0  0  0
   -1.8074   -0.5142    1.6330 C   0  0  0  0  0  0  0  0  0  0  0  0
   -2.2369    0.3351    0.6235 C   0  0  0  0  0  0  0  0  0  0  0  0
   -1.3239    0.6896   -0.3583 C   0  0  0  0  0  0  0  0  0  0  0  0
   -3.6333    0.8683    0.6026 C   0  0  0  0  0  0  0  0  0  0  0  0
   -4.2671    0.3062   -0.4778 F   0  0  0  0  0  0  0  0  0  0  0  0
   -3.5970    2.2510    0.5025 F   0  0  0  0  0  0  0  0  0  0  0  0
   -4.2420    0.5718    1.7978 F   0  0  0  0  0  0  0  0  0  0  0  0
  1  2  1  0
  2  3  1  0
  3  4  2  0
  4  5  1  0
  4  6  1  0
  6  7  1  0
  7  8  1  0
  8  9  2  0
  9 10  1  0
 10 11  2  0
 11 12  1  0
 12 13  2  0
 12 14  1  0
 14 15  1  0
 14 16  1  0
 14 17  1  0
 13  8  1  0
M  END

$$$$

     RDKit          3D

 19 21  0  0  0  0  0  0  0  0999 V2000
    5.9058    0.6184    0.1559 C   0  0  0  0  0  0  0  0  0  0  0  0
    4.5926    0.8175   -0.4425 N   0  0  0  0  0  0  0  0  0  0  0  0
    3.6314   -0.0404   -0.3169 C   0  0  0  0  0  0  0  0  0  0  0  0
    3.7864   -1.3808    0.1400 N   0  0  0  0  0  0  0  0  0  0  0  0
    2.5116   -2.0040   -0.0477 C   0  0  0  0  0  0  0  0  0  0  0  0
    2.2518   -3.2158    0.0865 O   0  0  0  0  0  0  0  0  0  0  0  0
    1.5268   -0.9456   -0.2433 C   0  0  0  0  0  0  0  0  0  0  0  0
    0.2022   -1.0216   -0.2544 C   0  0  0  0  0  0  0  0  0  0  0  0
   -0.5619    0.2045    0.0015 C   0  0  0  0  0  0  0  0  0  0  0  0
   -0.1237    1.2604    0.7922 C   0  0  0  0  0  0  0  0  0  0  0  0
   -1.1057    2.1538    0.9449 N   0  0  0  0  0  0  0  0  0  0  0  0
   -2.1693    1.6900    0.2716 C   0  0  0  0  0  0  0  0  0  0  0  0
   -3.4869    2.0605    0.3981 C   0  0  0  0  0  0  0  0  0  0  0  0
   -4.5431    1.1782    0.2117 C   0  0  0  0  0  0  0  0  0  0  0  0
   -4.2676   -0.1312   -0.1081 C   0  0  0  0  0  0  0  0  0  0  0  0
   -5.5290   -1.4683    0.4209 Br  0  0  0  0  0  0  0  0  0  0  0  0
   -2.9646   -0.4413   -0.4653 C   0  0  0  0  0  0  0  0  0  0  0  0
   -1.9175    0.3935   -0.1386 C   0  0  0  0  0  0  0  0  0  0  0  0
    2.2606    0.2722   -0.0770 N   0  0  0  0  0  0  0  0  0  0  0  0
  1  2  1  0
  2  3  2  0
  3  4  1  0
  4  5  1  0
  5  6  2  0
  5  7  1  0
  7  8  2  0
  8  9  1  0
  9 10  2  0
 10 11  1  0
 11 12  1  0
 12 13  2  0
 13 14  1  0
 14 15  2  0
 15 16  1  0
 15 17  1  0
 17 18  2  0
  7 19  1  0
  3 19  1  0
 18  9  1  0
 18 12  1  0
M  END

$$$$

     RDKit          3D

 22 24  0  0  0  0  0  0  0  0999 V2000
   -5.5823    2.8876    0.7770 F   0  0  0  0  0  0  0  0  0  0  0  0
   -4.6690    1.9211    0.4734 C   0  0  0  0  0  0  0  0  0  0  0  0
   -3.8671    1.4703    1.5133 C   0  0  0  0  0  0  0  0  0  0  0  0
   -2.9209    0.5129    1.2375 C   0  0  0  0  0  0  0  0  0  0  0  0
   -3.0043   -0.3287    0.1366 C   0  0  0  0  0  0  0  0  0  0  0  0
   -4.0224   -0.0632   -0.7696 C   0  0  0  0  0  0  0  0  0  0  0  0
   -4.3299   -1.0030   -1.7081 F   0  0  0  0  0  0  0  0  0  0  0  0
   -4.8618    1.0240   -0.5655 C   0  0  0  0  0  0  0  0  0  0  0  0
   -1.8052   -0.9694   -0.4240 C   0  0  0  0  0  0  0  0  0  0  0  0
   -1.9003   -2.2357   -0.9982 C   0  0  0  0  0  0  0  0  0  0  0  0
   -0.2336   -2.6730   -1.0569 S   0  0  0  0  0  0  0  0  0  0  0  0
    0.4047   -1.1230   -0.6753 C   0  0  0  0  0  0  0  0  0  0  0  0
    1.7568   -0.7708   -0.3846 N   0  0  0  0  0  0  0  0  0  0  0  0
    2.1843   -1.0676    0.9246 N   0  0  0  0  0  0  0  0  0  0  0  0
    3.4275   -1.4417    1.0134 C   0  0  0  0  0  0  0  0  0  0  0  0
    4.3933   -0.4903    0.4655 C   0  0  0  0  0  0  0  0  0  0  0  0
    4.3960   -0.0686   -0.8367 C   0  0  0  0  0  0  0  0  0  0  0  0
    5.2746    0.9619   -1.1495 C   0  0  0  0  0  0  0  0  0  0  0  0
    5.4384    1.9516   -0.2374 N   0  0  0  0  0  0  0  0  0  0  0  0
    5.5727    1.5401    1.0427 C   0  0  0  0  0  0  0  0  0  0  0  0
    5.0369    0.3100    1.4020 C   0  0  0  0  0  0  0  0  0  0  0  0
   -0.6884   -0.3445   -0.7843 N   0  0  0  0  0  0  0  0  0  0  0  0
  1  2  1  0
  2  3  2  0
  3  4  1  0
  4  5  2  0
  5  6  1  0
  6  7  1  0
  6  8  2  0
  5  9  1  0
  9 10  2  0
 10 11  1  0
 11 12  1  0
 12 13  1  0
 13 14  1  0
 14 15  2  0
 15 16  1  0
 16 17  2  0
 17 18  1  0
 18 19  2  0
 19 20  1  0
 20 21  2  0
 12 22  2  0
  8  2  1  0
 22  9  1  0
 21 16  1  0
M  END

$$$$

     RDKit          3D

 17 18  0  0  0  0  0  0  0  0999 V2000
   -5.9343    0.4627    1.0822 Br  0  0  0  0  0  0  0  0  0  0  0  0
   -4.2948    0.2634    0.1402 C   0  0  0  0  0  0  0  0  0  0  0  0
   -4.1354   -0.6594   -0.8757 C   0  0  0  0  0  0  0  0  0  0  0  0
   -3.1720   -0.4446   -1.8440 C   0  0  0  0  0  0  0  0  0  0  0  0
   -2.0630    0.2979   -1.5335 C   0  0  0  0  0  0  0  0  0  0  0  0
   -0.8487    0.0897   -2.3615 C   0  0  0  0  0  0  0  0  0  0  0  0
    0.5272    1.0037   -1.6480 S   0  0  0  0  0  0  0  0  0  0  0  0
    1.3936    0.0555   -0.3932 C   0  0  0  0  0  0  0  0  0  0  0  0
    2.5320   -0.6619   -0.7407 C   0  0  0  0  0  0  0  0  0  0  0  0
    3.6226   -0.7695    0.1122 C   0  0  0  0  0  0  0  0  0  0  0  0
    3.6155   -0.0772    1.3174 C   0  0  0  0  0  0  0  0  0  0  0  0
    2.3491    0.1952    1.8212 C   0  0  0  0  0  0  0  0  0  0  0  0
    1.2680    0.3466    0.9602 C   0  0  0  0  0  0  0  0  0  0  0  0
    4.8039    0.5597    1.8313 C   0  0  0  0  0  0  0  0  0  0  0  0
    5.6596    1.2648    2.2002 N   0  0  0  0  0  0  0  0  0  0  0  0
   -2.1075    1.1291   -0.4419 C   0  0  0  0  0  0  0  0  0  0  0  0
   -3.2158    1.1039    0.3735 C   0  0  0  0  0  0  0  0  0  0  0  0
  1  2  1  0
  2  3  2  0
  3  4  1  0
  4  5  2  0
  5  6  1  0
  6  7  1  0
  7  8  1  0
  8  9  2  0
  9 10  1  0
 10 11  2  0
 11 12  1  0
 12 13  2  0
 11 14  1  0
 14 15  3  0
  5 16  1  0
 16 17  2  0
 17  2  1  0
 13  8  1  0
M  END

$$$$

     RDKit          3D

 25 31  0  0  0  0  0  0  0  0999 V2000
    1.9188    3.2377   -0.5920 O   0  0  0  0  0  0  0  0  0  0  0  0
    0.9520    2.4462   -0.3789 C   0  0  0  0  0  0  0  0  0  0  0  0
   -0.2208    3.0632    0.3549 C   0  0  0  0  0  0  0  0  0  0  0  0
   -1.5623    2.2070   -0.0090 C   0  0  2  0  0  0  0  0  0  0  0  0
   -1.8122    1.5410    1.2875 O   0  0  0  0  0  0  0  0  0  0  0  0
   -3.1488    1.3039    1.3575 C   0  0  0  0  0  0  0  0  0  0  0  0
   -3.7030    0.4670    0.2173 C   0  0  0  0  0  0  0  0  0  0  0  0
   -3.1306   -0.1841   -0.7618 C   0  0  0  0  0  0  0  0  0  0  0  0
   -3.0073   -1.7282   -0.6578 C   0  0  0  0  0  0  0  0  0  0  0  0
   -1.6389   -2.3522   -0.7329 N   0  0  0  0  0  0  0  0  0  0  0  0
   -1.1433   -2.9415    0.3840 C   0  0  0  0  0  0  0  0  0  0  0  0
    0.0967   -2.2061    0.9657 C   0  0  0  0  0  0  0  0  0  0  0  0
    0.4535   -1.1492   -0.0049 C   0  0  1  0  0  0  0  0  0  0  0  0
   -0.6953   -1.1731   -0.9747 C   0  0  2  0  0  0  0  0  0  0  0  0
   -1.4870   -0.6863    0.4330 C   0  0  0  0  0  0  0  0  0  0  0  0
   -1.6677   -0.1990   -1.1225 C   0  0  2  0  0  0  0  0  0  0  0  0
   -0.7410    1.0573   -0.8233 C   0  0  2  0  0  0  0  0  0  0  0  0
    0.1568    0.3856    0.4546 C   0  0  2  0  0  0  0  0  0  0  0  0
    1.2869    1.0574   -0.3316 N   0  0  0  0  0  0  0  0  0  0  0  0
    2.3668    0.1890   -0.4306 C   0  0  0  0  0  0  0  0  0  0  0  0
    3.6660    0.5655   -0.1022 C   0  0  0  0  0  0  0  0  0  0  0  0
    4.4875   -0.3629    0.5155 C   0  0  0  0  0  0  0  0  0  0  0  0
    3.8882   -1.5212    1.0176 C   0  0  0  0  0  0  0  0  0  0  0  0
    2.8370   -1.9148    0.2549 C   0  0  0  0  0  0  0  0  0  0  0  0
    1.8480   -1.1022   -0.3201 C   0  0  0  0  0  0  0  0  0  0  0  0
  1  2  2  0
  2  3  1  0
  4  3  1  1
  4  5  1  0
  5  6  1  0
  6  7  1  0
  7  8  2  0
  8  9  1  0
  9 10  1  0
 10 11  1  0
 11 12  1  0
 13 12  1  1
 13 14  1  0
 14 15  1  1
 16 15  1  1
 17 16  1  1
 17 18  1  0
 18 19  1  6
 19 20  1  0
 20 21  2  0
 21 22  1  0
 22 23  2  0
 23 24  1  0
 24 25  2  0
 19  2  1  0
 17  4  1  0
 16  8  1  0
 14 10  1  0
 18 13  1  0
 25 13  1  0
 25 20  1  0
M  END

$$$$

     RDKit          3D

 12 11  0  0  0  0  0  0  0  0999 V2000
    2.5275    0.0077    0.6853 C   0  0  0  0  0  0  0  0  0  0  0  0
    2.2190   -0.3833    0.2730 C   0  0  0  0  0  0  0  0  0  0  0  0
    2.7327   -1.7412   -0.1973 C   0  0  0  0  0  0  0  0  0  0  0  0
    0.9449   -0.0279   -0.4852 C   0  0  0  0  0  0  0  0  0  0  0  0
    0.1812    0.9591    0.5300 C   0  0  1  0  0  0  0  0  0  0  0  0
    0.1639    2.1865   -0.5091 C   0  0  0  0  0  0  0  0  0  0  0  0
   -0.1358    3.3050    0.2638 F   0  0  0  0  0  0  0  0  0  0  0  0
   -1.2230    0.4579    0.1438 N   0  0  0  0  0  0  0  0  0  0  0  0
   -1.3073    0.4068   -1.2785 C   0  0  0  0  0  0  0  0  0  0  0  0
   -1.1794   -0.9209    0.6254 C   0  0  0  0  0  0  0  0  0  0  0  0
   -2.0130   -1.7391   -0.2549 C   0  0  0  0  0  0  0  0  0  0  0  0
   -2.9107   -2.5105   -0.5315 C   0  0  0  0  0  0  0  0  0  0  0  0
  1  2  1  0
  2  3  1  0
  2  4  1  0
  5  4  1  6
  5  6  1  0
  6  7  1  0
  5  8  1  0
  8  9  1  0
  8 10  1  0
 10 11  1  0
 11 12  3  0
M  END

$$$$

     RDKit          3D

 17 20  0  0  0  0  0  0  0  0999 V2000
    3.4680   -0.2940    0.8721 C   0  0  0  0  0  0  0  0  0  0  0  0
    3.2084    1.1055    0.9006 C   0  0  0  0  0  0  0  0  0  0  0  0
    2.4957    1.6030   -0.3108 C   0  0  0  0  0  0  0  0  0  0  0  0
    1.5054    0.7625   -0.8675 N   0  0  0  0  0  0  0  0  0  0  0  0
    0.2539    1.5747   -0.9877 C   0  0  0  0  0  0  0  0  0  0  0  0
   -0.4765    0.3092   -0.4391 C   0  0  2  0  0  0  0  0  0  0  0  0
   -0.1714   -0.4630   -1.8518 C   0  0  0  0  0  0  0  0  0  0  0  0
    0.5416   -1.5339   -0.9255 C   0  0  2  0  0  0  0  0  0  0  0  0
   -0.8106   -1.8552   -0.1832 C   0  0  0  0  0  0  0  0  0  0  0  0
   -1.9621   -1.0987   -0.1627 N   0  0  0  0  0  0  0  0  0  0  0  0
   -1.9677   -0.9996    1.1969 C   0  0  0  0  0  0  0  0  0  0  0  0
   -2.6508   -0.2405    2.1253 C   0  0  0  0  0  0  0  0  0  0  0  0
   -2.9268    1.0334    1.4214 C   0  0  0  0  0  0  0  0  0  0  0  0
   -2.5013    1.3085    0.1595 C   0  0  0  0  0  0  0  0  0  0  0  0
   -2.0297    0.2452   -0.9170 C   0  0  1  0  0  0  0  0  0  0  0  0
    1.2778   -0.4267    0.0963 C   0  0  1  0  0  0  0  0  0  0  0  0
    2.7461   -1.0302   -0.1267 C   0  0  0  0  0  0  0  0  0  0  0  0
  1  2  1  0
  2  3  1  0
  3  4  1  0
  4  5  1  0
  6  5  1  6
  6  7  1  0
  7  8  1  0
  8  9  1  1
  9 10  1  0
 10 11  1  0
 11 12  1  0
 12 13  1  0
 13 14  1  0
 15 14  1  1
  8 16  1  0
 16 17  1  6
 17  1  1  0
 16  4  1  0
 15  6  1  0
 15 10  1  0
M  END

$$$$

     RDKit          3D

 17 18  0  0  0  0  0  0  0  0999 V2000
   -4.5412    1.8633    0.7019 Cl  0  0  0  0  0  0  0  0  0  0  0  0
   -3.8537    0.2640    0.4790 C   0  0  0  0  0  0  0  0  0  0  0  0
   -4.6328   -0.8441    0.1742 C   0  0  0  0  0  0  0  0  0  0  0  0
   -3.9842   -2.0698    0.1824 C   0  0  0  0  0  0  0  0  0  0  0  0
   -2.6076   -2.1763    0.1338 C   0  0  0  0  0  0  0  0  0  0  0  0
   -1.8433   -1.0298    0.1136 C   0  0  0  0  0  0  0  0  0  0  0  0
   -2.4781    0.1356    0.5269 C   0  0  0  0  0  0  0  0  0  0  0  0
   -0.5027   -0.9870   -0.4863 C   0  0  0  0  0  0  0  0  0  0  0  0
   -0.4157   -1.1079   -1.7258 O   0  0  0  0  0  0  0  0  0  0  0  0
    0.5350   -0.3663    0.3343 C   0  0  0  0  0  0  0  0  0  0  0  0
    0.9559    0.8781    0.1344 C   0  0  0  0  0  0  0  0  0  0  0  0
    2.3753    1.1495    0.3960 C   0  0  0  0  0  0  0  0  0  0  0  0
    3.4155    0.8286   -0.3513 O   0  0  0  0  0  0  0  0  0  0  0  0
    4.4844    0.6769    0.4105 C   0  0  0  0  0  0  0  0  0  0  0  0
    5.9730   -0.4965    0.1259 Br  0  0  0  0  0  0  0  0  0  0  0  0
    4.2113    1.4043    1.5602 C   0  0  0  0  0  0  0  0  0  0  0  0
    2.9089    1.8774    1.4499 C   0  0  0  0  0  0  0  0  0  0  0  0
  1  2  1  0
  2  3  2  0
  3  4  1  0
  4  5  2  0
  5  6  1  0
  6  7  2  0
  6  8  1  0
  8  9  2  0
  8 10  1  0
 10 11  2  0
 11 12  1  0
 12 13  1  0
 13 14  1  0
 14 15  1  0
 14 16  2  0
 16 17  1  0
  7  2  1  0
 17 12  2  0
M  END

$$$$

     RDKit          3D

 16 17  0  0  0  0  0  0  0  0999 V2000
   -2.2734    1.3418   -0.6373 H   0  0  0  0  0  0  0  0  0  0  0  0
   -2.0688    0.5577   -0.1183 C   0  0  0  0  0  0  0  0  0  0  0  0
   -1.6643    0.9659    0.8257 H   0  0  0  0  0  0  0  0  0  0  0  0
   -1.1151   -0.2386   -0.8582 N   0  0  0  0  0  0  0  0  0  0  0  0
   -0.2158   -0.8337    0.2411 C   0  0  1  0  0  0  0  0  0  0  0  0
    0.6194   -1.8638   -0.7900 C   0  0  2  0  0  0  0  0  0  0  0  0
    0.1143   -3.1051   -0.1804 F   0  0  0  0  0  0  0  0  0  0  0  0
    1.9426   -1.8311    0.1390 C   0  0  0  0  0  0  0  0  0  0  0  0
    2.0833   -0.3755    0.3822 C   0  0  0  0  0  0  0  0  0  0  0  0
    3.2205    0.4047    0.2479 C   0  0  0  0  0  0  0  0  0  0  0  0
    3.1641    1.7364   -0.1179 C   0  0  0  0  0  0  0  0  0  0  0  0
    1.9413    2.3927   -0.1204 C   0  0  0  0  0  0  0  0  0  0  0  0
    0.7973    1.6420    0.1184 C   0  0  0  0  0  0  0  0  0  0  0  0
    0.8976    0.2778    0.1055 C   0  0  0  0  0  0  0  0  0  0  0  0
   -3.2436   -0.2337    0.2360 C   0  0  0  0  0  0  0  0  0  0  0  0
   -4.1994   -0.8376    0.6808 C   0  0  0  0  0  0  0  0  0  0  0  0
  1  2  1  0
  2  3  1  0
  2  4  1  0
  5  4  1  6
  5  6  1  0
  6  7  1  1
  6  8  1  0
  8  9  1  0
  9 10  2  0
 10 11  1  0
 11 12  2  0
 12 13  1  0
 13 14  2  0
  2 15  1  0
 15 16  3  0
 14  5  1  0
 14  9  1  0
M  ISO  2   1   2   3   2
M  END

$$$$

     RDKit          3D

 11 10  0  0  0  0  0  0  0  0999 V2000
   -3.8331    1.3702    0.5632 C   0  0  0  0  0  0  0  0  0  0  0  0
   -2.9722    0.1731    0.2944 C   0  0  0  0  0  0  0  0  0  0  0  0
   -1.6394    0.2893    0.2654 C   0  0  0  0  0  0  0  0  0  0  0  0
   -0.7606   -0.8433    0.6329 C   0  0  0  0  0  0  0  0  0  0  0  0
    0.2370   -1.1824   -0.4674 C   0  0  0  0  0  0  0  0  0  0  0  0
    1.5977   -0.7255   -0.0612 C   0  0  0  0  0  0  0  0  0  0  0  0
    2.0344    0.5161   -0.2512 C   0  0  0  0  0  0  0  0  0  0  0  0
    2.6931    1.3157    0.8316 C   0  0  0  0  0  0  0  0  0  0  0  0
    3.9474    1.7794    0.4062 O   0  0  0  0  0  0  0  0  0  0  0  0
    2.3188   -1.5396    0.9421 C   0  0  0  0  0  0  0  0  0  0  0  0
   -3.6232   -1.1530    0.5535 C   0  0  0  0  0  0  0  0  0  0  0  0
  1  2  1  0
  2  3  2  3
  3  4  1  0
  4  5  1  0
  5  6  1  0
  6  7  2  0
  7  8  1  0
  8  9  1  0
  6 10  1  0
  2 11  1  0
M  END

$$$$

     RDKit          3D

 16 16  0  0  0  0  0  0  0  0999 V2000
   -2.2215   -2.1734    1.0432 C   0  0  0  0  0  0  0  0  0  0  0  0
   -1.2208   -2.1691   -0.0751 C   0  0  0  0  0  0  0  0  0  0  0  0
   -0.4868   -0.8385   -0.1760 C   0  0  0  0  0  0  0  0  0  0  0  0
    0.9666   -1.2011   -0.4659 C   0  0  0  0  0  0  0  0  0  0  0  0
    1.7835   -0.0645    0.0886 C   0  0  0  0  0  0  0  0  0  0  0  0
    3.2424   -0.1756   -0.2484 C   0  0  0  0  0  0  0  0  0  0  0  0
    4.0312   -0.2700    1.0363 C   0  0  0  0  0  0  0  0  0  0  0  0
    3.6566    1.1420   -0.8937 C   0  0  0  0  0  0  0  0  0  0  0  0
   -0.9595   -0.0300   -1.3316 C   0  0  0  0  0  0  0  0  0  0  0  0
   -0.4877   -0.2678   -2.4773 O   0  0  0  0  0  0  0  0  0  0  0  0
   -2.0162    0.8839   -1.0877 N   0  0  0  0  0  0  0  0  0  0  0  0
   -1.9421    1.6998    0.0882 C   0  0  0  0  0  0  0  0  0  0  0  0
   -2.4301    2.8661    0.1392 O   0  0  0  0  0  0  0  0  0  0  0  0
   -1.0655    1.2835    1.1151 N   0  0  0  0  0  0  0  0  0  0  0  0
   -0.5726   -0.0608    1.0809 C   0  0  0  0  0  0  0  0  0  0  0  0
   -0.2776   -0.6246    2.1642 O   0  0  0  0  0  0  0  0  0  0  0  0
  1  2  1  0
  2  3  1  0
  3  4  1  0
  4  5  1  0
  5  6  1  0
  6  7  1  0
  6  8  1  0
  3  9  1  0
  9 10  2  0
  9 11  1  0
 11 12  1  0
 12 13  2  0
 12 14  1  0
 14 15  1  0
 15 16  2  0
 15  3  1  0
M  END

$$$$

     RDKit          3D

 12 13  0  0  0  0  0  0  0  0999 V2000
   -4.1145    0.2441    0.2841 C   0  0  0  0  0  0  0  0  0  0  0  0
   -2.7362    0.1616    0.6997 N   0  0  0  0  0  0  0  0  0  0  0  0
   -2.0705   -1.0161    0.2100 C   0  0  0  0  0  0  0  0  0  0  0  0
   -1.0477   -0.7204   -0.8584 C   0  0  0  0  0  0  0  0  0  0  0  0
   -0.0575    0.2653   -0.3203 C   0  0  0  0  0  0  0  0  0  0  0  0
   -0.5450    1.1248    0.5727 C   0  0  0  0  0  0  0  0  0  0  0  0
   -2.0075    1.3805    0.4803 C   0  0  0  0  0  0  0  0  0  0  0  0
    1.3748   -0.0605   -0.3219 C   0  0  0  0  0  0  0  0  0  0  0  0
    2.3409    0.7626   -0.8150 C   0  0  0  0  0  0  0  0  0  0  0  0
    3.4748    0.0563   -1.2028 C   0  0  0  0  0  0  0  0  0  0  0  0
    3.4935   -1.2029   -0.0310 S   0  0  0  0  0  0  0  0  0  0  0  0
    1.8947   -0.9954    0.5675 C   0  0  0  0  0  0  0  0  0  0  0  0
  1  2  1  0
  2  3  1  0
  3  4  1  0
  4  5  1  0
  5  6  2  0
  6  7  1  0
  5  8  1  0
  8  9  1  0
  9 10  2  0
 10 11  1  0
 11 12  1  0
  7  2  1  0
 12  8  2  0
M  END

$$$$

     RDKit          3D

 22 22  0  0  0  0  0  0  0  0999 V2000
   -8.0064   -2.4766   -0.2566 C   0  0  0  0  0  0  0  0  0  0  0  0
   -8.3754   -1.0393    0.0914 C   0  0  0  0  0  0  0  0  0  0  0  0
   -7.2566   -0.4280    0.8936 C   0  0  0  0  0  0  0  0  0  0  0  0
   -6.0700   -0.1258   -0.0131 C   0  0  0  0  0  0  0  0  0  0  0  0
   -4.9426   -1.0339    0.4632 C   0  0  0  0  0  0  0  0  0  0  0  0
   -3.7002   -0.2468    0.7762 C   0  0  0  0  0  0  0  0  0  0  0  0
   -3.9469    1.2458    0.8013 C   0  0  0  0  0  0  0  0  0  0  0  0
   -3.3304    1.8364   -0.4501 C   0  0  0  0  0  0  0  0  0  0  0  0
   -2.1597    0.9424   -0.8373 C   0  0  0  0  0  0  0  0  0  0  0  0
   -1.0636    1.1273    0.2042 C   0  0  0  0  0  0  0  0  0  0  0  0
   -0.3121    2.3835   -0.1844 C   0  0  0  0  0  0  0  0  0  0  0  0
    1.0664    1.9783   -0.6909 C   0  0  0  0  0  0  0  0  0  0  0  0
    2.0573    2.4592    0.3629 C   0  0  0  0  0  0  0  0  0  0  0  0
    2.5838    1.2067    1.0550 C   0  0  0  0  0  0  0  0  0  0  0  0
    3.2359    0.3733   -0.0254 C   0  0  0  0  0  0  0  0  0  0  0  0
    3.3696   -1.0772    0.3604 C   0  0  0  0  0  0  0  0  0  0  0  0
    4.7953   -1.3865    0.2901 N   0  0  0  0  0  0  0  0  0  0  0  0
    5.3145   -1.6476   -0.9332 C   0  0  0  0  0  0  0  0  0  0  0  0
    6.6843   -1.6152   -1.1270 C   0  0  0  0  0  0  0  0  0  0  0  0
    7.5212   -1.2150   -0.0976 C   0  0  0  0  0  0  0  0  0  0  0  0
    6.9509   -0.5960    0.9870 C   0  0  0  0  0  0  0  0  0  0  0  0
    5.5849   -0.6653    1.1220 C   0  0  0  0  0  0  0  0  0  0  0  0
  1  2  1  0
  2  3  1  0
  3  4  1  0
  4  5  1  0
  5  6  1  0
  6  7  1  0
  7  8  1  0
  8  9  1  0
  9 10  1  0
 10 11  1  0
 11 12  1  0
 12 13  1  0
 13 14  1  0
 14 15  1  0
 15 16  1  0
 16 17  1  0
 17 18  2  0
 18 19  1  0
 19 20  2  0
 20 21  1  0
 21 22  2  0
 22 17  1  0
M  CHG  1  17   1
M  END

$$$$

     RDKit          3D

 30 33  0  0  0  0  0  0  0  0999 V2000
   -2.8465   -1.4471    1.4877 F   0  0  0  0  0  0  0  0  0  0  0  0
   -2.3018   -0.4128    0.8783 C   0  0  0  0  0  0  0  0  0  0  0  0
   -0.9628   -0.1640    1.0039 C   0  0  0  0  0  0  0  0  0  0  0  0
   -0.2676    0.4738   -0.0191 C   0  0  0  0  0  0  0  0  0  0  0  0
   -0.9632    1.4790   -0.6812 C   0  0  0  0  0  0  0  0  0  0  0  0
   -2.3518    1.4884   -0.5796 C   0  0  0  0  0  0  0  0  0  0  0  0
   -3.0289    0.5065    0.1347 C   0  0  0  0  0  0  0  0  0  0  0  0
   -4.3857    0.0801   -0.2339 C   0  0  0  0  0  0  0  0  0  0  0  0
   -5.2556   -0.3657    0.6579 C   0  0  0  0  0  0  0  0  0  0  0  0
   -6.4972   -1.1100    0.2823 C   0  0  0  0  0  0  0  0  0  0  0  0
   -7.2908   -0.2129   -1.0450 S   0  0  0  0  0  0  0  0  0  0  0  0
   -7.4529   -1.1061   -2.2549 O   0  0  0  0  0  0  0  0  0  0  0  0
   -8.6221    0.3167   -0.6463 O   0  0  0  0  0  0  0  0  0  0  0  0
   -6.1653    1.1045   -1.4877 C   0  0  0  0  0  0  0  0  0  0  0  0
   -4.8178    0.4054   -1.6311 C   0  0  0  0  0  0  0  0  0  0  0  0
    1.1555    0.3294   -0.1551 N   0  0  0  0  0  0  0  0  0  0  0  0
    1.9536   -0.0065    1.0253 C   0  0  0  0  0  0  0  0  0  0  0  0
    1.9764   -1.6004    0.6494 C   0  0  2  0  0  0  0  0  0  0  0  0
    3.3630   -1.9162    1.4558 C   0  0  0  0  0  0  0  0  0  0  0  0
    4.2147   -0.7882    1.2124 N   0  0  0  0  0  0  0  0  0  0  0  0
    5.0679   -0.5198    0.2212 C   0  0  0  0  0  0  0  0  0  0  0  0
    5.6560    0.6717    0.5474 C   0  0  0  0  0  0  0  0  0  0  0  0
    6.8510    1.2760   -0.0546 C   0  0  0  0  0  0  0  0  0  0  0  0
    7.9456    0.5890   -0.2928 C   0  0  0  0  0  0  0  0  0  0  0  0
    9.7025    1.2357    0.0136 Br  0  0  0  0  0  0  0  0  0  0  0  0
    5.0668    1.1501    1.6565 N   0  0  0  0  0  0  0  0  0  0  0  0
    4.4294    0.1077    2.1782 N   0  0  0  0  0  0  0  0  0  0  0  0
    2.6839   -1.3223   -0.6726 O   0  0  0  0  0  0  0  0  0  0  0  0
    1.7682   -0.4109   -1.2219 C   0  0  0  0  0  0  0  0  0  0  0  0
    1.3752   -0.3465   -2.4288 O   0  0  0  0  0  0  0  0  0  0  0  0
  1  2  1  0
  2  3  2  0
  3  4  1  0
  4  5  2  0
  5  6  1  0
  6  7  2  0
  7  8  1  0
  8  9  2  0
  9 10  1  0
 10 11  1  0
 11 12  2  0
 11 13  2  0
 11 14  1  0
 14 15  1  0
  4 16  1  0
 16 17  1  0
 17 18  1  0
 18 19  1  1
 19 20  1  0
 20 21  1  0
 21 22  2  0
 22 23  1  0
 23 24  2  0
 24 25  1  0
 22 26  1  0
 26 27  2  0
 18 28  1  0
 28 29  1  0
 29 30  2  0
  7  2  1  0
 15  8  1  0
 29 16  1  0
 27 20  1  0
M  END

$$$$

     RDKit          3D

 10 10  0  0  0  0  0  0  0  0999 V2000
    3.3559   -0.6278    0.4803 N   0  0  0  0  0  0  0  0  0  0  0  0
    2.1445    0.0370    0.0987 C   0  0  0  0  0  0  0  0  0  0  0  0
    2.3094    1.0999   -0.5604 O   0  0  0  0  0  0  0  0  0  0  0  0
    0.9111   -0.7640    0.0580 C   0  0  0  0  0  0  0  0  0  0  0  0
   -0.2647    0.0941   -0.0618 N   0  0  0  0  0  0  0  0  0  0  0  0
   -0.7125    0.9893    1.0003 C   0  0  0  0  0  0  0  0  0  0  0  0
   -2.0680    0.4294    1.4198 C   0  0  0  0  0  0  0  0  0  0  0  0
   -2.6513    0.1090    0.0487 C   0  0  0  0  0  0  0  0  0  0  0  0
   -1.4596   -0.3164   -0.7283 C   0  0  0  0  0  0  0  0  0  0  0  0
   -1.5647   -1.0506   -1.7553 O   0  0  0  0  0  0  0  0  0  0  0  0
  1  2  1  0
  2  3  2  0
  2  4  1  0
  4  5  1  0
  5  6  1  0
  6  7  1  0
  7  8  1  0
  8  9  1  0
  9 10  2  0
  9  5  1  0
M  END

$$$$

     RDKit          3D

 11 12  0  0  0  0  0  0  0  0999 V2000
    2.9103   -1.1739    0.5892 N   0  0  0  0  0  0  0  0  0  0  0  0
    1.7521   -0.6004    0.0019 C   0  0  0  0  0  0  0  0  0  0  0  0
    1.6192    0.7299   -0.1960 N   0  0  0  0  0  0  0  0  0  0  0  0
    0.3882    1.2968   -0.2158 C   0  0  0  0  0  0  0  0  0  0  0  0
    0.2356    2.6798   -0.0814 O   0  0  0  0  0  0  0  0  0  0  0  0
   -0.7317    0.4951   -0.0529 C   0  0  0  0  0  0  0  0  0  0  0  0
   -1.9301    0.6516    0.5584 N   0  0  0  0  0  0  0  0  0  0  0  0
   -2.5831   -0.4907    0.3596 N   0  0  0  0  0  0  0  0  0  0  0  0
   -1.8031   -1.3611   -0.2600 N   0  0  0  0  0  0  0  0  0  0  0  0
   -0.5522   -0.8486   -0.3621 C   0  0  0  0  0  0  0  0  0  0  0  0
    0.6948   -1.3784   -0.3410 N   0  0  0  0  0  0  0  0  0  0  0  0
  1  2  1  0
  2  3  2  0
  3  4  1  0
  4  5  1  0
  4  6  2  0
  6  7  1  0
  7  8  1  0
  8  9  2  0
  9 10  1  0
 10 11  2  0
 11  2  1  0
 10  6  1  0
M  END

$$$$

     RDKit          3D

 22 22  0  0  0  0  0  0  0  0999 V2000
    1.3176    1.8687   -0.5913 C   0  0  0  0  0  0  0  0  0  0  0  0
    0.4363    0.6653   -0.7186 C   0  0  0  0  0  0  0  0  0  0  0  0
    1.0093   -0.4648   -0.3174 C   0  0  0  0  0  0  0  0  0  0  0  0
    1.8196   -0.5164    0.9089 C   0  0  0  0  0  0  0  0  0  0  0  0
    2.8367   -1.3758    0.8180 C   0  0  0  0  0  0  0  0  0  0  0  0
    3.8171   -0.9960   -0.2103 C   0  0  0  0  0  0  0  0  0  0  0  0
    4.7242   -0.0474    0.0285 C   0  0  0  0  0  0  0  0  0  0  0  0
    6.1672   -0.2824   -0.1152 C   0  0  0  0  0  0  0  0  0  0  0  0
    6.8186   -0.2159    0.9724 O   0  0  0  0  0  0  0  0  0  0  0  0
    6.8437    0.2204   -1.2310 O   0  0  0  0  0  0  0  0  0  0  0  0
    4.1748   -1.9349   -1.3201 C   0  0  0  0  0  0  0  0  0  0  0  0
   -0.9709    0.8232   -1.0044 C   0  0  0  0  0  0  0  0  0  0  0  0
   -1.9222   -0.0323   -0.7399 C   0  0  0  0  0  0  0  0  0  0  0  0
   -3.1543    0.2567   -0.0398 C   0  0  0  0  0  0  0  0  0  0  0  0
   -3.3923    1.3787    0.6259 C   0  0  0  0  0  0  0  0  0  0  0  0
   -2.6108    2.5768    0.1960 C   0  0  0  0  0  0  0  0  0  0  0  0
   -4.7657    1.5748    1.1390 C   0  0  0  0  0  0  0  0  0  0  0  0
   -5.7177    1.0679    0.0854 C   0  0  0  0  0  0  0  0  0  0  0  0
   -5.4780   -0.3831   -0.2660 C   0  0  0  0  0  0  0  0  0  0  0  0
   -4.1151   -0.8553    0.1740 C   0  0  0  0  0  0  0  0  0  0  0  0
   -4.0886   -1.2552    1.6294 C   0  0  0  0  0  0  0  0  0  0  0  0
   -3.7496   -2.0729   -0.6278 C   0  0  0  0  0  0  0  0  0  0  0  0
  1  2  1  0
  2  3  2  0
  3  4  1  0
  4  5  2  0
  5  6  1  0
  6  7  2  0
  7  8  1  0
  8  9  2  0
  8 10  1  0
  6 11  1  0
  2 12  1  0
 12 13  2  0
 13 14  1  0
 14 15  2  0
 15 16  1  0
 15 17  1  0
 17 18  1  0
 18 19  1  0
 19 20  1  0
 20 21  1  0
 20 22  1  0
 20 14  1  0
M  END

$$$$

     RDKit          3D

 15 15  0  0  0  0  0  0  0  0999 V2000
   -3.7047    1.6036    0.6300 C   0  0  0  0  0  0  0  0  0  0  0  0
   -3.5302    0.2278    0.0432 C   0  0  0  0  0  0  0  0  0  0  0  0
   -3.5458    0.3304   -1.4697 C   0  0  0  0  0  0  0  0  0  0  0  0
   -2.3294   -0.4363    0.5122 N   0  0  0  0  0  0  0  0  0  0  0  0
   -1.5381   -0.7679   -0.6448 C   0  0  0  0  0  0  0  0  0  0  0  0
   -0.4441   -1.7600   -0.3677 C   0  0  0  0  0  0  0  0  0  0  0  0
   -0.7485   -2.6279    0.6676 O   0  0  0  0  0  0  0  0  0  0  0  0
    0.8580   -1.0821   -0.1986 C   0  0  0  0  0  0  0  0  0  0  0  0
    1.7742   -1.4056    0.7827 C   0  0  0  0  0  0  0  0  0  0  0  0
    2.5020   -0.3791    1.3585 C   0  0  0  0  0  0  0  0  0  0  0  0
    2.5315    0.9010    0.8497 C   0  0  0  0  0  0  0  0  0  0  0  0
    2.8068    2.0215    1.6028 O   0  0  0  0  0  0  0  0  0  0  0  0
    1.9584    1.0748   -0.3992 C   0  0  0  0  0  0  0  0  0  0  0  0
    2.2956    2.2101   -1.1230 O   0  0  0  0  0  0  0  0  0  0  0  0
    1.1144    0.0897   -0.8984 C   0  0  0  0  0  0  0  0  0  0  0  0
  1  2  1  0
  2  3  1  0
  2  4  1  0
  4  5  1  0
  5  6  1  0
  6  7  1  0
  6  8  1  0
  8  9  2  0
  9 10  1  0
 10 11  2  0
 11 12  1  0
 11 13  1  0
 13 14  1  0
 13 15  2  0
 15  8  1  0
M  END

$$$$

     RDKit          3D

  5  4  0  0  0  0  0  0  0  0999 V2000
    2.0437   -0.0521   -0.5471 Cl  0  0  0  0  0  0  0  0  0  0  0  0
    0.8586   -0.2829    0.7233 C   0  0  0  0  0  0  0  0  0  0  0  0
   -0.5427    0.0081    0.3585 C   0  0  0  0  0  0  0  0  0  0  0  0
   -0.9061    1.6156   -0.1750 Cl  0  0  0  0  0  0  0  0  0  0  0  0
   -1.4535   -1.2887   -0.3596 Cl  0  0  0  0  0  0  0  0  0  0  0  0
  1  2  1  0
  2  3  1  0
  3  4  1  0
  3  5  1  0
M  END

$$$$

     RDKit          3D

  9  9  0  0  0  0  0  0  0  0999 V2000
   -2.9846   -1.0291   -0.2381 Cl  0  0  0  0  0  0  0  0  0  0  0  0
   -1.2615   -0.6595   -0.2613 C   0  0  0  0  0  0  0  0  0  0  0  0
    0.0216   -1.7677    0.0509 S   0  0  0  0  0  0  0  0  0  0  0  0
    1.2850   -0.6212    0.2927 C   0  0  0  0  0  0  0  0  0  0  0  0
    3.0034   -0.9902    0.1493 Cl  0  0  0  0  0  0  0  0  0  0  0  0
    0.6743    0.5439   -0.1590 C   0  0  0  0  0  0  0  0  0  0  0  0
    1.5646    2.0174   -0.5287 Cl  0  0  0  0  0  0  0  0  0  0  0  0
   -0.6767    0.5462    0.1177 C   0  0  0  0  0  0  0  0  0  0  0  0
   -1.6260    1.9602    0.5765 Cl  0  0  0  0  0  0  0  0  0  0  0  0
  1  2  1  0
  2  3  1  0
  3  4  1  0
  4  5  1  0
  4  6  2  0
  6  7  1  0
  6  8  1  0
  8  9  1  0
  8  2  2  0
M  END

$$$$

     RDKit          3D

 12 11  0  0  0  0  0  0  0  0999 V2000
    1.7115    0.4418    1.1992 O   0  0  0  0  0  0  0  0  0  0  0  0
    1.5243   -0.8291    0.4708 C   0  0  2  0  0  0  0  0  0  0  0  0
    2.5461   -0.5044   -0.7199 C   0  0  0  0  0  0  0  0  0  0  0  0
    3.7064    0.9182   -0.3571 Br  0  0  0  0  0  0  0  0  0  0  0  0
    0.2299   -0.2342   -0.3945 C   0  0  1  0  0  0  0  0  0  0  0  0
   -0.0029   -1.4860   -1.1272 O   0  0  0  0  0  0  0  0  0  0  0  0
   -0.7801   -0.4063    0.9165 C   0  0  2  0  0  0  0  0  0  0  0  0
   -1.2039   -1.8116    0.7691 O   0  0  0  0  0  0  0  0  0  0  0  0
   -2.1502    0.3165    0.2752 C   0  0  2  0  0  0  0  0  0  0  0  0
   -2.5315   -0.6999   -0.7312 O   0  0  0  0  0  0  0  0  0  0  0  0
   -1.4709    1.2590   -0.8384 C   0  0  0  0  0  0  0  0  0  0  0  0
   -1.5786    3.0360   -0.1975 Br  0  0  0  0  0  0  0  0  0  0  0  0
  2  1  1  1
  2  3  1  0
  3  4  1  0
  2  5  1  0
  5  6  1  6
  5  7  1  0
  7  8  1  6
  7  9  1  0
  9 10  1  6
  9 11  1  0
 11 12  1  0
M  END

$$$$

     RDKit          3D

  5  4  0  0  0  0  0  0  0  0999 V2000
    1.3155   -1.0551    0.5201 Cl  0  0  0  0  0  0  0  0  0  0  0  0
    0.0031    0.0112    0.0033 C   0  0  0  0  0  0  0  0  0  0  0  0
    0.6843    1.3729   -0.8907 Cl  0  0  0  0  0  0  0  0  0  0  0  0
   -1.0905   -0.9312   -1.0246 Cl  0  0  0  0  0  0  0  0  0  0  0  0
   -0.9124    0.6022    1.3919 Cl  0  0  0  0  0  0  0  0  0  0  0  0
  1  2  1  0
  2  3  1  0
  2  4  1  0
  2  5  1  0
M  END

$$$$

     RDKit          3D

 18 20  0  0  0  0  0  0  0  0999 V2000
    5.0275    0.6652    0.2896 C   0  0  0  0  0  0  0  0  0  0  0  0
    3.7628    0.7165    0.2106 C   0  0  0  0  0  0  0  0  0  0  0  0
    2.8401    0.1209    1.1822 C   0  0  0  0  0  0  0  0  0  0  0  0
    2.1499   -0.9574    0.5454 C   0  0  0  0  0  0  0  0  0  0  0  0
    0.9425   -0.8356   -0.1012 C   0  0  0  0  0  0  0  0  0  0  0  0
    0.3928    0.1661   -0.8068 C   0  0  0  0  0  0  0  0  0  0  0  0
    0.3802    1.3698    0.0446 N   0  0  0  0  0  0  0  0  0  0  0  0
   -0.8639    1.6472    0.3971 C   0  0  0  0  0  0  0  0  0  0  0  0
   -1.3900    2.8894    0.7512 N   0  0  0  0  0  0  0  0  0  0  0  0
   -1.6205    0.4349    0.7461 N   0  0  0  0  0  0  0  0  0  0  0  0
   -1.5878   -0.9403   -0.1291 C   0  0  1  0  0  0  0  0  0  0  0  0
   -3.0689   -1.1330   -0.5604 C   0  0  0  0  0  0  0  0  0  0  0  0
   -3.2121    0.2129   -0.3665 C   0  0  0  0  0  0  0  0  0  0  0  0
   -1.6721    0.4932   -0.2806 C   0  0  1  0  0  0  0  0  0  0  0  0
   -1.0900   -0.5899    0.9210 C   0  0  0  0  0  0  0  0  0  0  0  0
   -0.2364   -1.7824    0.3097 C   0  0  2  0  0  0  0  0  0  0  0  0
    0.2693   -2.2292    1.7568 C   0  0  0  0  0  0  0  0  0  0  0  0
   -1.0234   -0.2483   -1.4697 C   0  0  1  0  0  0  0  0  0  0  0  0
  1  2  1  0
  2  3  1  0
  3  4  1  0
  4  5  1  0
  5  6  2  0
  6  7  1  0
  7  8  2  0
  8  9  1  0
  8 10  1  0
 11 10  1  1
 11 12  1  0
 12 13  1  0
 14 13  1  6
 14 15  1  0
 15 16  1  0
 16 17  1  1
 14 18  1  0
 16  5  1  0
 18  6  1  1
 18 11  1  0
M  END

$$$$

     RDKit          3D

 28 30  0  0  0  0  0  0  0  0999 V2000
    5.7208   -1.5607    1.8011 C   0  0  0  0  0  0  0  0  0  0  0  0
    4.6910   -2.3809    1.2172 N   0  0  0  0  0  0  0  0  0  0  0  0
    4.9323   -3.7912    1.0390 C   0  0  0  0  0  0  0  0  0  0  0  0
    3.3694   -1.8830    1.0633 C   0  0  0  0  0  0  0  0  0  0  0  0
    2.3799   -2.6452    0.4905 C   0  0  0  0  0  0  0  0  0  0  0  0
    1.2480   -2.0293   -0.0316 C   0  0  0  0  0  0  0  0  0  0  0  0
    1.2642   -0.6530   -0.2046 C   0  0  0  0  0  0  0  0  0  0  0  0
    1.9389    0.0560    0.7834 C   0  0  0  0  0  0  0  0  0  0  0  0
    3.0415   -0.5644    1.3586 C   0  0  0  0  0  0  0  0  0  0  0  0
    0.1421   -0.0353   -0.9240 C   0  0  0  0  0  0  0  0  0  0  0  0
    0.3179    1.1808   -1.4469 C   0  0  0  0  0  0  0  0  0  0  0  0
    1.5143    1.9812   -1.1455 C   0  0  0  0  0  0  0  0  0  0  0  0
    1.4277    3.2816   -0.8513 C   0  0  0  0  0  0  0  0  0  0  0  0
    0.1210    3.9566   -0.8556 C   0  0  0  0  0  0  0  0  0  0  0  0
   -0.2183    4.7900    0.0863 N   0  0  0  0  0  0  0  0  0  0  0  0
   -1.4845    5.4560   -0.0593 C   0  0  0  0  0  0  0  0  0  0  0  0
    0.5510    4.9310    1.3134 C   0  0  0  0  0  0  0  0  0  0  0  0
   -0.8861    3.2848   -1.6900 C   0  0  0  0  0  0  0  0  0  0  0  0
   -0.8562    1.9618   -1.8621 C   0  0  0  0  0  0  0  0  0  0  0  0
   -1.1978   -0.5665   -0.6398 C   0  0  0  0  0  0  0  0  0  0  0  0
   -1.7325   -1.5023   -1.5176 C   0  0  0  0  0  0  0  0  0  0  0  0
   -2.9016   -2.1587   -1.1627 C   0  0  0  0  0  0  0  0  0  0  0  0
   -3.4195   -2.1090    0.1194 C   0  0  0  0  0  0  0  0  0  0  0  0
   -2.5894   -1.5621    1.0845 C   0  0  0  0  0  0  0  0  0  0  0  0
   -1.5057   -0.7829    0.6981 C   0  0  0  0  0  0  0  0  0  0  0  0
   -4.8086   -2.3583    0.3606 N   0  0  0  0  0  0  0  0  0  0  0  0
   -5.3039   -2.0819    1.7044 C   0  0  0  0  0  0  0  0  0  0  0  0
   -5.7559   -2.2151   -0.7290 C   0  0  0  0  0  0  0  0  0  0  0  0
  1  2  1  0
  2  3  1  0
  2  4  1  0
  4  5  2  0
  5  6  1  0
  6  7  2  0
  7  8  1  0
  8  9  2  0
  7 10  1  0
 10 11  2  3
 11 12  1  0
 12 13  2  0
 13 14  1  0
 14 15  2  3
 15 16  1  0
 15 17  1  0
 14 18  1  0
 18 19  2  0
 10 20  1  0
 20 21  2  0
 21 22  1  0
 22 23  2  0
 23 24  1  0
 24 25  2  0
 23 26  1  0
 26 27  1  0
 26 28  1  0
  9  4  1  0
 19 11  1  0
 25 20  1  0
M  CHG  1  15   1
M  END

$$$$

     RDKit          3D

 21 25  0  0  0  0  0  0  0  0999 V2000
    2.1045   -2.5617   -0.8784 C   0  0  0  0  0  0  0  0  0  0  0  0
    1.7718   -1.1651   -1.2164 C   0  0  0  0  0  0  0  0  0  0  0  0
    2.4204   -0.8406   -2.3559 C   0  0  0  0  0  0  0  0  0  0  0  0
    2.2542   -0.1373   -0.1328 C   0  0  2  0  0  0  0  0  0  0  0  0
    1.3599   -0.5392    1.1883 C   0  0  1  0  0  0  0  0  0  0  0  0
    0.6868    0.7668    1.3929 O   0  0  0  0  0  0  0  0  0  0  0  0
    1.4161    1.7453    0.8687 C   0  0  0  0  0  0  0  0  0  0  0  0
    2.0279    2.7661    1.2569 O   0  0  0  0  0  0  0  0  0  0  0  0
    1.4555    1.2190   -0.6172 C   0  0  2  0  0  0  0  0  0  0  0  0
   -0.0609    0.8165   -0.7966 C   0  0  2  0  0  0  0  0  0  0  0  0
   -0.3268    0.9170   -2.1943 O   0  0  0  0  0  0  0  0  0  0  0  0
   -0.8145    2.0213   -0.3141 C   0  0  0  0  0  0  0  0  0  0  0  0
   -1.9870    1.4939    0.6574 C   0  0  1  0  0  0  0  0  0  0  0  0
   -2.8311    0.7192   -0.4105 O   0  0  0  0  0  0  0  0  0  0  0  0
   -1.7859   -0.0355    0.4244 C   0  0  2  0  0  0  0  0  0  0  0  0
   -2.0447   -1.0532    1.2757 C   0  0  0  0  0  0  0  0  0  0  0  0
   -3.0603   -1.8162    1.3899 O   0  0  0  0  0  0  0  0  0  0  0  0
   -0.7372   -1.3255    1.7217 O   0  0  0  0  0  0  0  0  0  0  0  0
    0.1286   -1.4151    0.4888 C   0  0  1  0  0  0  0  0  0  0  0  0
   -0.6333   -0.3237   -0.3613 C   0  0  2  0  0  0  0  0  0  0  0  0
   -1.3441   -1.2521   -1.3873 C   0  0  0  0  0  0  0  0  0  0  0  0
  1  2  1  0
  2  3  2  0
  4  2  1  6
  4  5  1  0
  5  6  1  6
  6  7  1  0
  7  8  2  0
  9  7  1  1
  9 10  1  0
 10 11  1  6
 10 12  1  0
 13 12  1  6
 13 14  1  0
 15 14  1  6
 15 16  1  0
 16 17  2  0
 16 18  1  0
 19 18  1  1
 19 20  1  0
 20 21  1  6
  9  4  1  0
 19  5  1  0
 20 10  1  0
 15 13  1  0
 20 15  1  0
M  END

$$$$

     RDKit          3D

 18 17  0  0  0  0  0  0  0  0999 V2000
    1.2994   -0.2743   -2.5372 C   0  0  0  0  0  0  0  0  0  0  0  0
    0.3959    0.6286   -1.7498 C   0  0  0  0  0  0  0  0  0  0  0  0
    0.1451    0.1147   -0.3366 C   0  0  0  0  0  0  0  0  0  0  0  0
   -1.0925   -0.7240   -0.2426 C   0  0  0  0  0  0  0  0  0  0  0  0
   -0.9228   -2.0671   -0.5889 O   0  0  0  0  0  0  0  0  0  0  0  0
   -1.9158   -2.9498   -0.1964 N   0  0  0  0  0  0  0  0  0  0  0  0
   -3.0297   -2.9096   -0.7775 O   0  0  0  0  0  0  0  0  0  0  0  0
   -1.9993   -3.1909    1.1658 O   0  0  0  0  0  0  0  0  0  0  0  0
   -0.1221    1.3584    0.5081 C   0  0  0  0  0  0  0  0  0  0  0  0
   -1.1828    2.0275   -0.1470 O   0  0  0  0  0  0  0  0  0  0  0  0
   -2.0724    2.8521    0.4686 N   0  0  0  0  0  0  0  0  0  0  0  0
   -3.1160    3.1276   -0.1734 O   0  0  0  0  0  0  0  0  0  0  0  0
   -1.9547    3.1601    1.8101 O   0  0  0  0  0  0  0  0  0  0  0  0
    1.3773   -0.5641    0.2149 C   0  0  0  0  0  0  0  0  0  0  0  0
    2.4363    0.3873    0.1289 O   0  0  0  0  0  0  0  0  0  0  0  0
    3.6766   -0.0014    0.6062 N   0  0  0  0  0  0  0  0  0  0  0  0
    3.8658    0.1530    1.8298 O   0  0  0  0  0  0  0  0  0  0  0  0
    4.2117   -1.1282    0.0171 O   0  0  0  0  0  0  0  0  0  0  0  0
  1  2  1  0
  2  3  1  0
  3  4  1  0
  4  5  1  0
  5  6  1  0
  6  7  2  0
  6  8  1  0
  3  9  1  0
  9 10  1  0
 10 11  1  0
 11 12  2  0
 11 13  1  0
  3 14  1  0
 14 15  1  0
 15 16  1  0
 16 17  2  0
 16 18  1  0
M  CHG  6   6   1   8  -1  11   1  13  -1  16   1  18  -1
M  END

$$$$

     RDKit          3D

 12 11  0  0  0  0  0  0  0  0999 V2000
    4.3346   -1.7546    0.1124 Br  0  0  0  0  0  0  0  0  0  0  0  0
    3.2833   -0.2278    0.6931 C   0  0  0  0  0  0  0  0  0  0  0  0
    2.3500    0.1176   -0.4391 C   0  0  0  0  0  0  0  0  0  0  0  0
    1.3484    1.1331    0.0156 C   0  0  0  0  0  0  0  0  0  0  0  0
    1.6978    2.1480    0.6913 O   0  0  0  0  0  0  0  0  0  0  0  0
    0.0683    1.2690   -0.6147 N   0  0  0  0  0  0  0  0  0  0  0  0
   -1.0458    1.5082    0.2997 C   0  0  0  0  0  0  0  0  0  0  0  0
   -1.6298    0.1885    0.5243 N   0  0  0  0  0  0  0  0  0  0  0  0
   -2.4373   -0.3638   -0.5065 C   0  0  0  0  0  0  0  0  0  0  0  0
   -3.3183    0.3914   -0.9887 O   0  0  0  0  0  0  0  0  0  0  0  0
   -2.5550   -1.8049   -0.7386 C   0  0  0  0  0  0  0  0  0  0  0  0
   -2.0964   -2.6046    0.2160 C   0  0  0  0  0  0  0  0  0  0  0  0
  1  2  1  0
  2  3  1  0
  3  4  1  0
  4  5  2  0
  4  6  1  0
  6  7  1  0
  7  8  1  0
  8  9  1  0
  9 10  2  0
  9 11  1  0
 11 12  2  0
M  END

$$$$

     RDKit          3D

 35 39  0  0  0  0  0  0  0  0999 V2000
    0.5265   -3.1311    2.1181 C   0  0  0  0  0  0  0  0  0  0  0  0
    0.7732   -3.3428    1.3196 C   0  0  0  0  0  0  0  0  0  0  0  0
   -0.2258   -2.7887    0.1993 C   0  0  1  0  0  0  0  0  0  0  0  0
   -1.4877   -2.8926    1.1734 C   0  0  0  0  0  0  0  0  0  0  0  0
   -2.5551   -2.2670    0.4170 N   0  0  0  0  0  0  0  0  0  0  0  0
   -3.8405   -2.6087    0.9494 C   0  0  0  0  0  0  0  0  0  0  0  0
   -4.4953   -1.5176    1.7350 C   0  0  0  0  0  0  0  0  0  0  0  0
   -4.6358   -0.3594    0.7960 C   0  0  0  0  0  0  0  0  0  0  0  0
   -5.4706    0.7187    1.0704 C   0  0  0  0  0  0  0  0  0  0  0  0
   -5.3898    1.7596    0.1506 C   0  0  0  0  0  0  0  0  0  0  0  0
   -6.1262    2.9124    0.3031 O   0  0  0  0  0  0  0  0  0  0  0  0
   -5.6536    4.2092   -0.0094 C   0  0  0  0  0  0  0  0  0  0  0  0
   -4.5157    1.6851   -0.9254 C   0  0  0  0  0  0  0  0  0  0  0  0
   -4.8844    2.2363   -2.1555 O   0  0  0  0  0  0  0  0  0  0  0  0
   -6.0463    1.6586   -2.7503 C   0  0  0  0  0  0  0  0  0  0  0  0
   -3.3676    0.9262   -0.7371 C   0  0  0  0  0  0  0  0  0  0  0  0
   -3.5294   -0.2648   -0.0545 C   0  0  0  0  0  0  0  0  0  0  0  0
   -2.2735   -0.7882    0.7691 C   0  0  2  0  0  0  0  0  0  0  0  0
   -1.1512   -0.6392   -0.3838 C   0  0  0  0  0  0  0  0  0  0  0  0
    0.0593   -1.1894    0.5207 C   0  0  2  0  0  0  0  0  0  0  0  0
    1.2296   -1.0522   -0.5635 C   0  0  0  0  0  0  0  0  0  0  0  0
    2.4894   -1.4683    0.3740 C   0  0  1  0  0  0  0  0  0  0  0  0
    3.3925   -2.0889   -0.7220 N   0  0  0  0  0  0  0  0  0  0  0  0
    3.0241   -1.6107   -1.9706 C   0  0  0  0  0  0  0  0  0  0  0  0
    2.6846   -0.1708   -2.0968 C   0  0  0  0  0  0  0  0  0  0  0  0
    3.2751    0.5316   -0.9125 C   0  0  0  0  0  0  0  0  0  0  0  0
    4.1582    1.5834   -1.0868 C   0  0  0  0  0  0  0  0  0  0  0  0
    5.1165    1.8558   -0.1167 C   0  0  0  0  0  0  0  0  0  0  0  0
    5.9646    2.9242   -0.2887 O   0  0  0  0  0  0  0  0  0  0  0  0
    5.5302    4.2047    0.1642 C   0  0  0  0  0  0  0  0  0  0  0  0
    5.4519    0.8705    0.8042 C   0  0  0  0  0  0  0  0  0  0  0  0
    6.7769    0.5963    1.1181 O   0  0  0  0  0  0  0  0  0  0  0  0
    7.5456   -0.4063    0.4688 C   0  0  0  0  0  0  0  0  0  0  0  0
    4.4249   -0.0353    1.0505 C   0  0  0  0  0  0  0  0  0  0  0  0
    3.2256   -0.0506    0.3360 C   0  0  0  0  0  0  0  0  0  0  0  0
  1  2  1  0
  3  2  1  1
  3  4  1  0
  4  5  1  0
  5  6  1  0
  6  7  1  0
  7  8  1  0
  8  9  2  0
  9 10  1  0
 10 11  1  0
 11 12  1  0
 10 13  2  0
 13 14  1  0
 14 15  1  0
 13 16  1  0
 16 17  2  0
 18 17  1  6
 18 19  1  0
 19 20  1  0
 20 21  1  6
 22 21  1  6
 22 23  1  0
 23 24  1  0
 24 25  1  0
 25 26  1  0
 26 27  2  0
 27 28  1  0
 28 29  1  0
 29 30  1  0
 28 31  2  0
 31 32  1  0
 32 33  1  0
 31 34  1  0
 34 35  2  0
 20  3  1  0
 18  5  1  0
 17  8  1  0
 35 22  1  0
 35 26  1  0
M  END

$$$$

     RDKit          3D

 34 37  0  0  0  0  0  0  0  0999 V2000
    8.5347   -0.2442   -1.2764 C   0  0  0  0  0  0  0  0  0  0  0  0
    7.7966   -0.1641    0.0027 C   0  0  0  0  0  0  0  0  0  0  0  0
    8.3773   -0.4083    1.0963 O   0  0  0  0  0  0  0  0  0  0  0  0
    6.3299   -0.1072   -0.0066 C   0  0  0  0  0  0  0  0  0  0  0  0
    5.6025   -0.3647    1.1486 C   0  0  0  0  0  0  0  0  0  0  0  0
    4.2257   -0.2979    1.1730 C   0  0  0  0  0  0  0  0  0  0  0  0
    3.5965   -0.0708   -0.0428 C   0  0  0  0  0  0  0  0  0  0  0  0
    2.1754   -0.2337   -0.1339 N   0  0  0  0  0  0  0  0  0  0  0  0
    1.3775    0.9179    0.2080 C   0  0  0  0  0  0  0  0  0  0  0  0
    0.4533    0.4853    1.3406 C   0  0  0  0  0  0  0  0  0  0  0  0
   -0.2462   -0.6951    0.8387 N   0  0  0  0  0  0  0  0  0  0  0  0
    0.5762   -1.8976    0.7285 C   0  0  0  0  0  0  0  0  0  0  0  0
    1.6800   -1.5781   -0.2431 C   0  0  0  0  0  0  0  0  0  0  0  0
   -1.1237   -0.4607   -0.2691 C   0  0  0  0  0  0  0  0  0  0  0  0
   -0.7172   -0.6266   -1.4583 O   0  0  0  0  0  0  0  0  0  0  0  0
   -2.3874    0.2457   -0.0789 C   0  0  0  0  0  0  0  0  0  0  0  0
   -2.4444    1.6243    0.0807 C   0  0  0  0  0  0  0  0  0  0  0  0
   -3.5947    2.2535    0.5337 C   0  0  0  0  0  0  0  0  0  0  0  0
   -4.5049    1.4708    1.2329 C   0  0  0  0  0  0  0  0  0  0  0  0
   -4.4641    0.0951    1.1182 C   0  0  0  0  0  0  0  0  0  0  0  0
   -3.5547   -0.4425    0.2154 C   0  0  0  0  0  0  0  0  0  0  0  0
   -3.5040   -1.8737    0.1736 N   0  0  0  0  0  0  0  0  0  0  0  0
   -3.2220   -2.5136    1.4572 C   0  0  0  0  0  0  0  0  0  0  0  0
   -3.4701   -3.9927    1.2539 C   0  0  0  0  0  0  0  0  0  0  0  0
   -4.7810   -4.2798    0.9191 O   0  0  0  0  0  0  0  0  0  0  0  0
   -5.4696   -3.1772    0.4127 C   0  0  0  0  0  0  0  0  0  0  0  0
   -4.5539   -2.5189   -0.6117 C   0  0  0  0  0  0  0  0  0  0  0  0
   -3.9246    3.9466    0.1899 S   0  0  0  0  0  0  0  0  0  0  0  0
   -3.0343    4.4037   -0.9199 O   0  0  0  0  0  0  0  0  0  0  0  0
   -3.6829    4.7576    1.4165 O   0  0  0  0  0  0  0  0  0  0  0  0
   -5.6471    4.0805   -0.2241 C   0  0  0  0  0  0  0  0  0  0  0  0
    4.3213    0.5047   -1.0737 C   0  0  0  0  0  0  0  0  0  0  0  0
    3.6173    0.9977   -2.1211 F   0  0  0  0  0  0  0  0  0  0  0  0
    5.6626    0.1642   -1.1920 C   0  0  0  0  0  0  0  0  0  0  0  0
  1  2  1  0
  2  3  2  0
  2  4  1  0
  4  5  2  0
  5  6  1  0
  6  7  2  0
  7  8  1  0
  8  9  1  0
  9 10  1  0
 10 11  1  0
 11 12  1  0
 12 13  1  0
 11 14  1  0
 14 15  2  0
 14 16  1  0
 16 17  2  0
 17 18  1  0
 18 19  2  0
 19 20  1  0
 20 21  2  0
 21 22  1  0
 22 23  1  0
 23 24  1  0
 24 25  1  0
 25 26  1  0
 26 27  1  0
 18 28  1  0
 28 29  2  0
 28 30  2  0
 28 31  1  0
  7 32  1  0
 32 33  1  0
 32 34  2  0
 34  4  1  0
 13  8  1  0
 21 16  1  0
 27 22  1  0
M  END

$$$$

     RDKit          3D

 21 24  0  0  0  0  0  0  0  0999 V2000
    3.7421   -1.6153   -0.2366 C   0  0  0  0  0  0  0  0  0  0  0  0
    2.8749   -1.7326    0.7978 O   0  0  0  0  0  0  0  0  0  0  0  0
    1.6552   -1.1384    0.1812 C   0  0  1  0  0  0  0  0  0  0  0  0
    1.0831   -0.6869    1.4572 O   0  0  0  0  0  0  0  0  0  0  0  0
   -0.1785    0.0467    1.1580 C   0  0  2  0  0  0  0  0  0  0  0  0
   -0.8989   -1.2525    1.2356 O   0  0  0  0  0  0  0  0  0  0  0  0
   -1.5468   -1.6615    0.2213 C   0  0  1  0  0  0  0  0  0  0  0  0
   -2.2738   -2.9493    0.5134 C   0  0  0  0  0  0  0  0  0  0  0  0
   -2.8270   -0.8434    0.0931 C   0  0  0  0  0  0  0  0  0  0  0  0
   -2.4247    0.5163    0.1888 C   0  0  0  0  0  0  0  0  0  0  0  0
   -1.3676    0.9173   -0.9488 C   0  0  1  0  0  0  0  0  0  0  0  0
   -1.3208    2.3889   -0.1881 C   0  0  2  0  0  0  0  0  0  0  0  0
   -2.2738    3.0151   -1.3106 C   0  0  0  0  0  0  0  0  0  0  0  0
    0.0077    2.9653   -0.8489 C   0  0  0  0  0  0  0  0  0  0  0  0
    0.9245    2.2308    0.1275 C   0  0  0  0  0  0  0  0  0  0  0  0
    1.1461    1.0132   -0.8929 C   0  0  1  0  0  0  0  0  0  0  0  0
    2.4443    0.2870   -0.1785 C   0  0  1  0  0  0  0  0  0  0  0  0
    2.5379    0.9951    1.2414 C   0  0  0  0  0  0  0  0  0  0  0  0
   -0.0865    0.1614   -0.4005 C   0  0  1  0  0  0  0  0  0  0  0  0
   -0.1563   -0.8846   -1.1632 O   0  0  0  0  0  0  0  0  0  0  0  0
   -1.0613   -1.7726   -1.0471 O   0  0  0  0  0  0  0  0  0  0  0  0
  1  2  1  0
  3  2  1  1
  3  4  1  0
  5  4  1  1
  5  6  1  0
  6  7  1  0
  7  8  1  1
  7  9  1  0
  9 10  1  0
 11 10  1  1
 11 12  1  0
 12 13  1  6
 12 14  1  0
 14 15  1  0
 16 15  1  1
 16 17  1  0
 17 18  1  1
 16 19  1  0
 19 20  1  6
 20 21  1  0
 17  3  1  0
 19  5  1  0
 21  7  1  0
 19 11  1  0
M  END

$$$$

     RDKit          3D

 23 24  0  0  0  0  0  0  0  0999 V2000
   -1.7562    3.1962    1.4022 C   0  0  0  0  0  0  0  0  0  0  0  0
   -1.4573    2.6247    0.0208 C   0  0  0  0  0  0  0  0  0  0  0  0
   -0.2404    3.3518   -0.5034 C   0  0  0  0  0  0  0  0  0  0  0  0
   -2.6422    2.9309   -0.8876 C   0  0  0  0  0  0  0  0  0  0  0  0
   -1.2106    1.1691    0.0940 C   0  0  0  0  0  0  0  0  0  0  0  0
    0.0432    0.6537   -0.1317 C   0  0  0  0  0  0  0  0  0  0  0  0
    0.2194   -0.6866   -0.3232 C   0  0  0  0  0  0  0  0  0  0  0  0
    1.5378   -1.1272   -0.8759 C   0  0  0  0  0  0  0  0  0  0  0  0
    2.5641   -0.7885    0.1656 C   0  0  0  0  0  0  0  0  0  0  0  0
    2.9834    0.9944    0.1161 S   0  0  0  0  0  0  0  0  0  0  0  0
    4.7682    0.7319    0.1666 C   0  0  0  0  0  0  0  0  0  0  0  0
    5.5339    1.5821    0.7128 O   0  0  0  0  0  0  0  0  0  0  0  0
    4.8421   -0.6769    0.4238 N   0  0  0  0  0  0  0  0  0  0  0  0
    3.9210   -1.3211   -0.1849 C   0  0  0  0  0  0  0  0  0  0  0  0
    4.0294   -2.4531   -1.0012 O   0  0  0  0  0  0  0  0  0  0  0  0
   -0.8354   -1.5289   -0.1124 C   0  0  0  0  0  0  0  0  0  0  0  0
   -2.1199   -1.0081   -0.0158 C   0  0  0  0  0  0  0  0  0  0  0  0
   -2.3160    0.3470    0.2188 C   0  0  0  0  0  0  0  0  0  0  0  0
   -3.5938    0.8809    0.0458 O   0  0  0  0  0  0  0  0  0  0  0  0
   -3.2659   -1.9613   -0.1302 C   0  0  0  0  0  0  0  0  0  0  0  0
   -2.9260   -3.0413   -1.1497 C   0  0  0  0  0  0  0  0  0  0  0  0
   -4.5212   -1.2454   -0.5597 C   0  0  0  0  0  0  0  0  0  0  0  0
   -3.5576   -2.6243    1.1919 C   0  0  0  0  0  0  0  0  0  0  0  0
  1  2  1  0
  2  3  1  0
  2  4  1  0
  2  5  1  0
  5  6  2  0
  6  7  1  0
  7  8  1  0
  8  9  1  0
  9 10  1  0
 10 11  1  0
 11 12  2  0
 11 13  1  0
 13 14  2  0
 14 15  1  0
  7 16  2  0
 16 17  1  0
 17 18  2  0
 18 19  1  0
 17 20  1  0
 20 21  1  0
 20 22  1  0
 20 23  1  0
 18  5  1  0
 14  9  1  0
M  END

$$$$

     RDKit          3D

 21 21  0  0  0  0  0  0  0  0999 V2000
   -4.4925   -1.3555    3.3206 C   0  0  0  0  0  0  0  0  0  0  0  0
   -4.7931   -0.9034    1.9820 N   0  0  0  0  0  0  0  0  0  0  0  0
   -3.8587   -0.0925    1.2760 C   0  0  0  0  0  0  0  0  0  0  0  0
   -4.2366    0.4376    0.1356 C   0  0  0  0  0  0  0  0  0  0  0  0
   -5.4753    0.0820   -0.4892 N   0  0  0  0  0  0  0  0  0  0  0  0
   -6.2920    0.9902   -0.7387 O   0  0  0  0  0  0  0  0  0  0  0  0
   -5.7224   -1.2001   -0.9502 O   0  0  0  0  0  0  0  0  0  0  0  0
   -2.4758   -0.2803    1.5985 N   0  0  0  0  0  0  0  0  0  0  0  0
   -1.7379   -1.2216    0.7736 C   0  0  0  0  0  0  0  0  0  0  0  0
   -1.1781   -0.4556   -0.4179 C   0  0  0  0  0  0  0  0  0  0  0  0
   -0.2706    0.9569    0.2473 S   0  0  0  0  0  0  0  0  0  0  0  0
    1.3528    0.3812    0.7789 C   0  0  0  0  0  0  0  0  0  0  0  0
    2.1713    0.0441   -0.4286 C   0  0  0  0  0  0  0  0  0  0  0  0
    1.6231   -0.5806   -1.5461 C   0  0  0  0  0  0  0  0  0  0  0  0
    3.0527   -1.0358   -2.3920 S   0  0  0  0  0  0  0  0  0  0  0  0
    4.1730   -0.2186   -1.3750 C   0  0  0  0  0  0  0  0  0  0  0  0
    5.6557   -0.1608   -1.4984 C   0  0  0  0  0  0  0  0  0  0  0  0
    6.1610    0.5588   -0.3565 N   0  0  0  0  0  0  0  0  0  0  0  0
    7.5603    0.2749   -0.0896 C   0  0  0  0  0  0  0  0  0  0  0  0
    5.4422    0.2267    0.8720 C   0  0  0  0  0  0  0  0  0  0  0  0
    3.3408    0.6145   -0.7023 N   0  0  0  0  0  0  0  0  0  0  0  0
  1  2  1  0
  2  3  1  0
  3  4  2  0
  4  5  1  0
  5  6  2  0
  5  7  1  0
  3  8  1  0
  8  9  1  0
  9 10  1  0
 10 11  1  0
 11 12  1  0
 12 13  1  0
 13 14  2  0
 14 15  1  0
 15 16  1  0
 16 17  1  0
 17 18  1  0
 18 19  1  0
 18 20  1  0
 16 21  2  0
 21 13  1  0
M  CHG  2   5   1   7  -1
M  END

$$$$

     RDKit          3D

  7  6  0  0  0  0  0  0  0  0999 V2000
    1.7815    1.1683    0.2604 O   0  0  0  0  0  0  0  0  0  0  0  0
    1.0778   -0.0351    0.1371 C   0  0  0  0  0  0  0  0  0  0  0  0
    1.6647   -1.1156   -0.1705 O   0  0  0  0  0  0  0  0  0  0  0  0
   -0.6965   -0.0219   -0.0539 P   0  0  0  0  0  0  0  0  0  0  0  0
   -1.0971   -0.7883   -1.2721 O   0  0  0  0  0  0  0  0  0  0  0  0
   -1.4153   -0.7404    1.2981 O   0  0  0  0  0  0  0  0  0  0  0  0
   -1.3150    1.5330   -0.1991 O   0  0  0  0  0  0  0  0  0  0  0  0
  1  2  1  0
  2  3  2  0
  2  4  1  0
  4  5  2  0
  4  6  1  0
  4  7  1  0
M  END

$$$$

     RDKit          3D

 10 10  0  0  0  0  0  0  0  0999 V2000
    2.0900    1.4566    0.1204 C   0  0  0  0  0  0  0  0  0  0  0  0
    1.0307    0.5571   -0.3319 N   0  0  0  0  0  0  0  0  0  0  0  0
    1.0915   -0.8676   -0.2456 C   0  0  0  0  0  0  0  0  0  0  0  0
    2.1234   -1.4791    0.1683 O   0  0  0  0  0  0  0  0  0  0  0  0
   -0.1750   -1.3861    0.0151 O   0  0  0  0  0  0  0  0  0  0  0  0
   -1.1060   -0.3423    0.0501 C   0  0  0  0  0  0  0  0  0  0  0  0
   -1.7424   -0.3092    1.4266 C   0  0  0  0  0  0  0  0  0  0  0  0
   -2.1284   -0.6152   -1.0336 C   0  0  0  0  0  0  0  0  0  0  0  0
   -0.3500    0.9225   -0.2111 C   0  0  0  0  0  0  0  0  0  0  0  0
   -0.8339    2.0633    0.0416 O   0  0  0  0  0  0  0  0  0  0  0  0
  1  2  1  0
  2  3  1  0
  3  4  2  0
  3  5  1  0
  5  6  1  0
  6  7  1  0
  6  8  1  0
  6  9  1  0
  9 10  2  0
  9  2  1  0
M  END

$$$$

     RDKit          3D

 20 22  0  0  0  0  0  0  0  0999 V2000
    0.9650    0.2009    0.2265 C   0  0  0  0  0  0  0  0  0  0  0  0
   -0.3342    0.0774   -0.5423 C   0  0  0  0  0  0  0  0  0  0  0  0
   -1.0050   -1.1839   -0.1125 C   0  0  0  0  0  0  0  0  0  0  0  0
   -2.4967   -1.0972   -0.0069 C   0  0  0  0  0  0  0  0  0  0  0  0
   -2.9200   -2.1090    1.0521 C   0  0  0  0  0  0  0  0  0  0  0  0
   -1.9297   -3.2532    1.0012 C   0  0  0  0  0  0  0  0  0  0  0  0
   -1.4688   -3.5464   -0.4078 C   0  0  0  0  0  0  0  0  0  0  0  0
   -0.6617   -2.3811   -0.9606 C   0  0  0  0  0  0  0  0  0  0  0  0
   -1.1862    1.3016   -0.4766 C   0  0  0  0  0  0  0  0  0  0  0  0
   -1.9666    1.4489    0.7973 C   0  0  0  0  0  0  0  0  0  0  0  0
   -3.1002    2.4266    0.5152 C   0  0  0  0  0  0  0  0  0  0  0  0
   -2.6372    3.3749   -0.5666 C   0  0  0  0  0  0  0  0  0  0  0  0
   -1.1754    3.7454   -0.3871 C   0  0  0  0  0  0  0  0  0  0  0  0
   -0.2783    2.5250   -0.5572 C   0  0  0  0  0  0  0  0  0  0  0  0
    2.0270   -0.7295   -0.3474 C   0  0  0  0  0  0  0  0  0  0  0  0
    2.9386    0.1606   -1.1844 C   0  0  0  0  0  0  0  0  0  0  0  0
    4.3828    0.0240   -0.7909 C   0  0  0  0  0  0  0  0  0  0  0  0
    4.6084    0.3824    0.6706 C   0  0  0  0  0  0  0  0  0  0  0  0
    3.3861   -0.1035    1.4404 C   0  0  0  0  0  0  0  0  0  0  0  0
    2.8519   -1.2635    0.7318 N   0  0  0  0  0  0  0  0  0  0  0  0
  1  2  1  0
  2  3  1  0
  3  4  1  0
  4  5  1  0
  5  6  1  0
  6  7  1  0
  7  8  1  0
  2  9  1  0
  9 10  1  0
 10 11  1  0
 11 12  1  0
 12 13  1  0
 13 14  1  0
  1 15  1  0
 15 16  1  0
 16 17  1  0
 17 18  1  0
 18 19  1  0
 19 20  1  0
  8  3  1  0
 14  9  1  0
 20 15  1  0
M  END

$$$$

     RDKit          3D

 14 16  0  0  0  0  0  0  0  0999 V2000
    0.0351    0.9252   -0.8642 N   0  0  0  0  0  0  0  0  0  0  0  0
    1.1895    0.5739   -0.1345 C   0  0  0  0  0  0  0  0  0  0  0  0
    2.1802    1.4764    0.2246 C   0  0  0  0  0  0  0  0  0  0  0  0
    3.4947    1.0348    0.3050 C   0  0  0  0  0  0  0  0  0  0  0  0
    3.7604   -0.3291    0.3017 C   0  0  0  0  0  0  0  0  0  0  0  0
    2.7042   -1.2281    0.2405 C   0  0  0  0  0  0  0  0  0  0  0  0
    1.4270   -0.7516    0.2016 C   0  0  0  0  0  0  0  0  0  0  0  0
    0.0054   -1.7982    0.5377 S   0  0  0  0  0  0  0  0  0  0  0  0
   -1.4249   -0.7778    0.1734 C   0  0  0  0  0  0  0  0  0  0  0  0
   -2.5677   -0.8165    0.9609 C   0  0  0  0  0  0  0  0  0  0  0  0
   -3.6419    0.0012    0.6354 C   0  0  0  0  0  0  0  0  0  0  0  0
   -3.5619    0.6834   -0.5730 C   0  0  0  0  0  0  0  0  0  0  0  0
   -2.3826    0.7540   -1.3045 C   0  0  0  0  0  0  0  0  0  0  0  0
   -1.2174    0.2525   -0.7344 C   0  0  0  0  0  0  0  0  0  0  0  0
  1  2  1  0
  2  3  2  0
  3  4  1  0
  4  5  2  0
  5  6  1  0
  6  7  2  0
  7  8  1  0
  8  9  1  0
  9 10  2  0
 10 11  1  0
 11 12  2  0
 12 13  1  0
 13 14  2  0
 14  1  1  0
  7  2  1  0
 14  9  1  0
M  END

$$$$

     RDKit          3D

 30 34  0  0  0  0  0  0  0  0999 V2000
    2.8191   -1.2699   -2.5956 C   0  0  0  0  0  0  0  0  0  0  0  0
    3.5990   -0.4780   -1.6122 C   0  0  0  0  0  0  0  0  0  0  0  0
    3.4831   -0.8424   -0.2809 C   0  0  0  0  0  0  0  0  0  0  0  0
    2.2282   -1.4798    0.2240 C   0  0  0  0  0  0  0  0  0  0  0  0
    1.0697   -0.5144    0.2386 C   0  0  0  0  0  0  0  0  0  0  0  0
    0.0834   -0.9910   -0.6893 N   0  0  0  0  0  0  0  0  0  0  0  0
   -0.8326    0.0050   -1.1507 C   0  0  0  0  0  0  0  0  0  0  0  0
   -2.0720    0.1412   -0.3077 C   0  0  0  0  0  0  0  0  0  0  0  0
   -2.7326   -1.2322   -0.2951 C   0  0  0  0  0  0  0  0  0  0  0  0
   -1.7853   -2.1493    0.4263 C   0  0  0  0  0  0  0  0  0  0  0  0
   -0.5027   -2.2472   -0.3428 C   0  0  0  0  0  0  0  0  0  0  0  0
   -4.0681   -1.1586    0.3403 C   0  0  0  0  0  0  0  0  0  0  0  0
   -4.4808   -1.6477    1.5352 N   0  0  0  0  0  0  0  0  0  0  0  0
   -5.7585   -1.3726    1.6217 O   0  0  0  0  0  0  0  0  0  0  0  0
   -6.0232   -0.2931    0.9046 C   0  0  0  0  0  0  0  0  0  0  0  0
   -6.8317    0.8177    1.1151 C   0  0  0  0  0  0  0  0  0  0  0  0
   -6.6501    1.9648    0.3521 C   0  0  0  0  0  0  0  0  0  0  0  0
   -6.7073    3.2137    0.9007 F   0  0  0  0  0  0  0  0  0  0  0  0
   -6.0142    1.7649   -0.8667 C   0  0  0  0  0  0  0  0  0  0  0  0
   -5.1792    0.6719   -1.0645 C   0  0  0  0  0  0  0  0  0  0  0  0
   -5.0574   -0.3152   -0.0941 C   0  0  0  0  0  0  0  0  0  0  0  0
    4.3922   -0.2699    0.6005 C   0  0  0  0  0  0  0  0  0  0  0  0
    4.4923   -0.8151    1.7411 O   0  0  0  0  0  0  0  0  0  0  0  0
    5.4362    0.4397    0.1211 N   0  0  0  0  0  0  0  0  0  0  0  0
    6.6700    0.4576    0.8990 C   0  0  0  0  0  0  0  0  0  0  0  0
    7.5818    1.5773    0.4642 C   0  0  0  0  0  0  0  0  0  0  0  0
    6.7537    2.6248   -0.2387 C   0  0  0  0  0  0  0  0  0  0  0  0
    6.2627    2.0121   -1.5449 C   0  0  0  0  0  0  0  0  0  0  0  0
    5.4419    0.8274   -1.1649 C   0  0  0  0  0  0  0  0  0  0  0  0
    4.3826    0.5583   -1.9507 N   0  0  0  0  0  0  0  0  0  0  0  0
  1  2  1  0
  2  3  2  0
  3  4  1  0
  4  5  1  0
  5  6  1  0
  6  7  1  0
  7  8  1  0
  8  9  1  0
  9 10  1  0
 10 11  1  0
  9 12  1  0
 12 13  2  0
 13 14  1  0
 14 15  1  0
 15 16  2  0
 16 17  1  0
 17 18  1  0
 17 19  2  0
 19 20  1  0
 20 21  2  0
  3 22  1  0
 22 23  2  0
 22 24  1  0
 24 25  1  0
 25 26  1  0
 26 27  1  0
 27 28  1  0
 28 29  1  0
 29 30  2  0
 30  2  1  0
 11  6  1  0
 21 12  1  0
 21 15  1  0
 29 24  1  0
M  END

$$$$

     RDKit          3D

 13 14  0  0  0  0  0  0  0  0999 V2000
    1.6326   -2.1386   -0.6049 O   0  0  0  0  0  0  0  0  0  0  0  0
    1.0867   -0.8540   -0.5182 C   0  0  0  0  0  0  0  0  0  0  0  0
    1.9771    0.1423   -0.1351 C   0  0  0  0  0  0  0  0  0  0  0  0
    3.7978   -0.3170    0.8372 I   0  0  0  0  0  0  0  0  0  0  0  0
    1.4400    1.4123    0.0226 C   0  0  0  0  0  0  0  0  0  0  0  0
    0.0772    1.6199   -0.1152 C   0  0  0  0  0  0  0  0  0  0  0  0
   -0.7551    3.5587   -0.1987 I   0  0  0  0  0  0  0  0  0  0  0  0
   -0.8023    0.5449   -0.0629 C   0  0  0  0  0  0  0  0  0  0  0  0
   -2.0597    0.6777    0.5140 C   0  0  0  0  0  0  0  0  0  0  0  0
   -2.7374   -0.5122    0.7496 C   0  0  0  0  0  0  0  0  0  0  0  0
   -2.2277   -1.7258    0.3730 C   0  0  0  0  0  0  0  0  0  0  0  0
   -1.1410   -1.7316   -0.4376 N   0  0  0  0  0  0  0  0  0  0  0  0
   -0.2882   -0.6765   -0.4239 C   0  0  0  0  0  0  0  0  0  0  0  0
  1  2  1  0
  2  3  2  0
  3  4  1  0
  3  5  1  0
  5  6  2  0
  6  7  1  0
  6  8  1  0
  8  9  2  0
  9 10  1  0
 10 11  2  0
 11 12  1  0
 12 13  2  0
 13  2  1  0
 13  8  1  0
M  END

$$$$

     RDKit          3D

 14 14  0  0  0  0  0  0  0  0999 V2000
    0.4494    4.0682   -0.7655 Cl  0  0  0  0  0  0  0  0  0  0  0  0
    0.1361    2.3351   -0.5264 C   0  0  0  0  0  0  0  0  0  0  0  0
    0.9880    1.8829    0.6510 C   0  0  0  0  0  0  0  0  0  0  0  0
    0.9954    0.4401    0.6863 N   0  0  0  0  0  0  0  0  0  0  0  0
    2.0202   -0.0122   -0.2224 C   0  0  0  0  0  0  0  0  0  0  0  0
    2.3681   -1.4582    0.0090 C   0  0  0  0  0  0  0  0  0  0  0  0
    4.0033   -1.6712    0.6605 Cl  0  0  0  0  0  0  0  0  0  0  0  0
   -0.5918   -0.1394    0.2595 P   0  0  0  0  0  0  0  0  0  0  0  0
   -1.5983    0.9156    0.6920 O   0  0  0  0  0  0  0  0  0  0  0  0
   -0.9645   -1.6069    1.1568 N   0  0  0  0  0  0  0  0  0  0  0  0
   -2.2569   -2.0809    0.6997 C   0  0  0  0  0  0  0  0  0  0  0  0
   -2.8229   -1.1599   -0.3570 C   0  0  0  0  0  0  0  0  0  0  0  0
   -1.9726   -1.0720   -1.5874 C   0  0  0  0  0  0  0  0  0  0  0  0
   -0.7535   -0.4411   -1.3859 O   0  0  0  0  0  0  0  0  0  0  0  0
  1  2  1  0
  2  3  1  0
  3  4  1  0
  4  5  1  0
  5  6  1  0
  6  7  1  0
  4  8  1  0
  8  9  2  0
  8 10  1  0
 10 11  1  0
 11 12  1  0
 12 13  1  0
 13 14  1  0
 14  8  1  0
M  END

$$$$

     RDKit          3D

 13 15  0  0  0  0  0  0  0  0999 V2000
   -2.8501   -1.2104   -0.4612 C   0  0  0  0  0  0  0  0  0  0  0  0
   -2.1910   -0.1590    0.3996 C   0  0  0  0  0  0  0  0  0  0  0  0
   -2.8829    1.1083    0.3100 N   0  0  0  0  0  0  0  0  0  0  0  0
   -0.7123   -0.0270    0.1377 C   0  0  0  0  0  0  0  0  0  0  0  0
   -0.1229    0.7875    1.2649 C   0  0  0  0  0  0  0  0  0  0  0  0
    1.3662    0.8811    1.0606 C   0  0  0  0  0  0  0  0  0  0  0  0
    2.0490   -0.4705    1.0997 C   0  0  0  0  0  0  0  0  0  0  0  0
    1.3613   -1.3378    0.0788 C   0  0  0  0  0  0  0  0  0  0  0  0
    1.7295   -0.7658   -1.2847 C   0  0  0  0  0  0  0  0  0  0  0  0
    1.0921    0.6031   -1.3635 C   0  0  0  0  0  0  0  0  0  0  0  0
    1.6911    1.4824   -0.3011 C   0  0  0  0  0  0  0  0  0  0  0  0
   -0.4039    0.5354   -1.2197 C   0  0  0  0  0  0  0  0  0  0  0  0
   -0.1262   -1.4270    0.2789 C   0  0  0  0  0  0  0  0  0  0  0  0
  1  2  1  0
  2  3  1  0
  2  4  1  0
  4  5  1  0
  5  6  1  0
  6  7  1  0
  7  8  1  0
  8  9  1  0
  9 10  1  0
 10 11  1  0
 10 12  1  0
  8 13  1  0
 12  4  1  0
 13  4  1  0
 11  6  1  0
M  END

$$$$

     RDKit          3D

 16 15  0  0  0  0  0  0  0  0999 V2000
    5.5432    0.9198   -0.1359 C   0  0  0  0  0  0  0  0  0  0  0  0
    4.1020    1.0295    0.2731 C   0  0  0  0  0  0  0  0  0  0  0  0
    3.3134   -0.1263   -0.0712 N   0  0  0  0  0  0  0  0  0  0  0  0
    3.6843   -1.4882    0.2821 C   0  0  0  0  0  0  0  0  0  0  0  0
    5.1462   -1.7650    0.0986 C   0  0  0  0  0  0  0  0  0  0  0  0
    1.9053    0.0916   -0.2311 C   0  0  0  0  0  0  0  0  0  0  0  0
    1.4600    0.9878   -1.5268 S   0  0  0  0  0  0  0  0  0  0  0  0
    0.7110   -0.9014    0.6738 S   0  0  0  0  0  0  0  0  0  0  0  0
   -1.0139    0.2823    1.1143 S   0  0  0  0  0  0  0  0  0  0  0  0
   -2.2388   -0.0074   -0.1505 C   0  0  0  0  0  0  0  0  0  0  0  0
   -1.8151   -0.6006   -1.6135 S   0  0  0  0  0  0  0  0  0  0  0  0
   -3.6201    0.2864    0.0935 N   0  0  0  0  0  0  0  0  0  0  0  0
   -4.1106    1.5874   -0.3569 C   0  0  0  0  0  0  0  0  0  0  0  0
   -4.3741    2.5087    0.8049 C   0  0  0  0  0  0  0  0  0  0  0  0
   -4.5969   -0.7889    0.0847 C   0  0  0  0  0  0  0  0  0  0  0  0
   -4.0958   -2.0156    0.8152 C   0  0  0  0  0  0  0  0  0  0  0  0
  1  2  1  0
  2  3  1  0
  3  4  1  0
  4  5  1  0
  3  6  1  0
  6  7  2  0
  6  8  1  0
  8  9  1  0
  9 10  1  0
 10 11  2  0
 10 12  1  0
 12 13  1  0
 13 14  1  0
 12 15  1  0
 15 16  1  0
M  END

$$$$
