@<TRIPOS>MOLECULE

37 44 1
SMALL
NO_CHARGES
@<TRIPOS>ATOM
1	C1    -0.7150    -0.7700     0.0000	C.3	1	noname
2	C2     1.4325    -1.1136     0.0000	C.3	1	noname
3	C3     0.7725     0.3714     0.0000	C.3	1	noname
4	C4    -0.5475     2.6401     0.0000	C.3	1	noname
5	C5    -3.2975     1.9251     0.0000	C.3	1	noname
6	C6    -4.7300    -3.7400     0.0000	C.3	1	noname
7	C7     0.2886    -2.9175     0.0000	C.3	1	noname
8	C8    -6.7100    -1.9800     0.0000	C.3	1	noname
9	C9     1.4022    -4.7901     0.0000	C.3	1	noname
10	C10    -4.5761    -0.7261     0.0000	C.3	1	noname
11	C11    -7.5900     0.6929     0.0000	C.3	1	noname
12	C12    -8.1975    -2.3786     0.0000	C.3	1	noname
13	C13    -7.1086    -3.4675     0.0000	C.3	1	noname
14	C14    -1.8812     3.4101     0.0000	C.3	1	noname
15	C15    -3.6411    -4.8289     0.0000	C.3	1	noname
16	C16    -9.5312    -3.1486     0.0000	C.3	1	noname
17	H1     1.8848    -2.5857     0.0000	H	1	noname
18	H2     2.9714    -1.1729     0.0000	H	1	noname
19	H3    -4.1070     3.2352     0.0000	H	1	noname
20	H4    -3.2725    -3.2426     0.0000	H	1	noname
21	H5     1.7442    -3.4204     0.0000	H	1	noname
22	H6     0.0785    -5.5772     0.0000	H	1	noname
23	H7     2.1893    -6.1137     0.0000	H	1	noname
24	H8     2.7258    -4.0029     0.0000	H	1	noname
25	H9    -8.2844     2.0675     0.0000	H	1	noname
26	H10    -9.3925    -1.4071     0.0000	H	1	noname
27	H11    -8.6479    -3.5144     0.0000	H	1	noname
28	H12    -7.7172    -4.8821     0.0000	H	1	noname
29	H13    -1.1112     4.7438     0.0000	H	1	noname
30	H14    -3.2148     4.1801     0.0000	H	1	noname
31	H15    -3.0256     2.3796     0.0000	H	1	noname
32	H16    -4.7300    -5.9179     0.0000	H	1	noname
33	H17    -2.5521    -5.9179     0.0000	H	1	noname
34	H18    -2.5521    -3.7400     0.0000	H	1	noname
35	H19   -10.3012    -1.8149     0.0000	H	1	noname
36	H20   -10.8649    -3.9186     0.0000	H	1	noname
37	H21    -8.7612    -4.4823     0.0000	H	1	noname
@<TRIPOS>BOND
1	1	2	1
2	2	3	1
3	3	4	1
4	1	4	1
5	4	5	1
6	1	7	1
7	7	3	1
8	8	1	1
9	7	9	1
10	8	10	1
11	10	3	1
12	10	11	1
13	11	8	1
14	8	12	1
15	12	11	1
16	8	13	1
17	13	6	1
18	6	10	1
19	4	14	1
20	5	8	1
21	5	1	1
22	6	15	1
23	12	16	1
24	2	17	1
25	2	18	1
26	5	19	1
27	6	20	1
28	7	21	1
29	9	22	1
30	9	23	1
31	9	24	1
32	11	25	1
33	12	26	1
34	13	27	1
35	13	28	1
36	14	29	1
37	14	30	1
38	14	31	1
39	15	32	1
40	15	33	1
41	15	34	1
42	16	35	1
43	16	36	1
44	16	37	1
@<TRIPOS>SUBSTRUCTURE
1	noname	1
